data_
_symmetry_cell_setting           triclinic 
_symmetry_space_group_name_H-M   'P 1' 
_symmetry_Int_Tables_number      1 
loop_ 
_symmetry_equiv_pos_site_id 
_symmetry_equiv_pos_as_xyz 
1 x,y,z 
_cell_length_a             15.576947        
_cell_length_b             15.572424        
_cell_length_c             19.251902        
_cell_angle_alpha          90.000000        
_cell_angle_beta           90.000000        
_cell_angle_gamma          90.000000        
loop_  
_atom_site_label   
_atom_site_type_symbol  
_atom_site_fract_x  
_atom_site_fract_y  
_atom_site_fract_z 
 Cu0  Cu     0.000611     -0.000404      0.076849 
 Cu1  Cu     0.000542     -0.000529     -0.076589 
 O2  O    -0.088998      0.093674     -0.058788 
 C3  C    -0.117257      0.118112     -0.000026 
 O4  O    -0.092981      0.089692      0.058726 
 O5  O     0.094577      0.089241     -0.058622 
 C6  C     0.118863      0.117812      0.000033 
 O7  O     0.090406      0.093522      0.058719 
 O8  O    -0.093031     -0.090642     -0.058326 
 C9  C    -0.117244     -0.119068      0.000440 
 O10  O    -0.088962     -0.094594      0.059181 
 O11  O     0.090345     -0.094476     -0.058577 
 C12  C     0.118808     -0.118816      0.000091 
 O13  O     0.094579     -0.090252      0.058763 
 Cu14  Cu    -0.499407      0.499578      0.076848 
 Cu15  Cu    -0.499284      0.499648     -0.076589 
 O16  O     0.406544     -0.410785     -0.058786 
 C17  C     0.382105     -0.382528     -0.000023 
 O18  O     0.410523     -0.406803      0.058729 
 O19  O    -0.409190     -0.406757     -0.058324 
 C20  C    -0.380761     -0.382547      0.000441 
 O21  O    -0.405238     -0.410830      0.059181 
 O22  O     0.410971      0.405586     -0.058622 
 C23  C     0.382401      0.381302      0.000032 
 O24  O     0.406695      0.409757      0.058719 
 O25  O    -0.405360      0.409823     -0.058580 
 C26  C    -0.381014      0.381362      0.000087 
 O27  O    -0.409579      0.405587      0.058759 
 C28  C    -0.214428      0.221031     -0.063010 
 C29  C    -0.277972      0.284400     -0.062974 
 C30  C    -0.312541      0.313312      0.000067 
 C31  C    -0.283405      0.278861      0.063078 
 C32  C    -0.219851      0.215505      0.063046 
 C33  C    -0.185380      0.186501      0.000000 
 H34  H    -0.300252      0.311005     -0.112290 
 H35  H    -0.310015      0.301045      0.112419 
 H36  H    -0.197552      0.188924      0.112367 
 H37  H    -0.187806      0.198848     -0.112351 
 N38  N    -0.001685     -0.000290      0.182120 
 C39  C     0.043653     -0.076772      0.209520 
 C40  C     0.041773      0.077245      0.209557 
 C41  C    -0.090605     -0.001348      0.209521 
 C42  C     0.041833      0.077174     -0.209271 
 H43  H     0.108288      0.079113      0.189938 
 H44  H     0.009189      0.135038      0.189408 
 C45  C     0.043604     -0.076845     -0.209310 
 H46  H     0.012575     -0.135339      0.189276 
 H47  H     0.110226     -0.076930      0.189979 
 C48  C    -0.090599     -0.001390     -0.209251 
 H49  H    -0.125622      0.055082      0.189612 
 H50  H    -0.124304     -0.058549      0.189560 
 H51  H     0.012382     -0.135396     -0.189180 
 H52  H     0.110143     -0.077147     -0.189681 
 H53  H     0.108389      0.078904     -0.189752 
 H54  H     0.009394      0.134987     -0.189008 
 H55  H    -0.124267     -0.058645     -0.189366 
 N56  N    -0.001675     -0.000363     -0.181864 
 H57  H    -0.125634      0.054987     -0.189255 
 C58  C     0.285128      0.278514     -0.063011 
 C59  C     0.221664      0.215066     -0.063011 
 C60  C     0.187001      0.186195      0.000004 
 C61  C     0.215804      0.220933      0.063014 
 C62  C     0.279266      0.284379      0.063014 
 C63  C     0.314008      0.313173      0.000004 
 H64  H     0.199586      0.188316     -0.112333 
 H65  H     0.189047      0.198868      0.112338 
 H66  H     0.301338      0.311133      0.112338 
 H67  H     0.311881      0.300585     -0.112333 
 C68  C     0.284699     -0.279943      0.063050 
 C69  C     0.221329     -0.216403      0.063082 
 C70  C     0.186871     -0.187278      0.000071 
 C71  C     0.215789     -0.221845     -0.062970 
 C72  C     0.279173     -0.285375     -0.063006 
 C73  C     0.313709     -0.314412      0.000004 
 H74  H     0.199140     -0.189794      0.112423 
 H75  H     0.189179     -0.199574     -0.112286 
 H76  H     0.301361     -0.311995     -0.112348 
 H77  H     0.311286     -0.302234      0.112371 
 N78  N    -0.499558     -0.498127      0.182119 
 C79  C     0.422724      0.458770      0.209556 
 C80  C    -0.423315      0.456160      0.209520 
 C81  C    -0.498083     -0.409186      0.209521 
 C82  C    -0.423242      0.456208     -0.209311 
 H83  H    -0.423471      0.389567      0.189976 
 H84  H    -0.364618      0.486972      0.189280 
 C85  C     0.422793      0.458713     -0.209271 
 H86  H     0.365103      0.491631      0.189402 
 H87  H     0.420546      0.392244      0.189942 
 C88  C    -0.498041     -0.409193     -0.209252 
 H89  H    -0.440738     -0.375749      0.189566 
 H90  H     0.445672     -0.373893      0.189605 
 H91  H     0.365152      0.491435     -0.189008 
 H92  H     0.420746      0.392147     -0.189753 
 H93  H    -0.423255      0.389650     -0.189678 
 H94  H    -0.364560      0.487164     -0.189184 
 H95  H     0.445769     -0.373879     -0.189249 
 N96  N    -0.499486     -0.498137     -0.181864 
 H97  H    -0.440639     -0.375788     -0.189374 
 C98  C    -0.219657     -0.216698     -0.062572 
 C99  C    -0.283116     -0.280147     -0.062572 
 C100  C    -0.312288     -0.314505      0.000463 
 C101  C    -0.277829     -0.285442      0.063496 
 C102  C    -0.214365     -0.221988      0.063496 
 C103  C    -0.185295     -0.187533      0.000463 
 H104  H    -0.309632     -0.302469     -0.111908 
 H105  H    -0.300139     -0.311990      0.112826 
 H106  H    -0.187814     -0.199682      0.112825 
 H107  H    -0.197329     -0.190184     -0.111908 
 Cu108  Cu     0.000611     -0.000404     -0.423151 
 Cu109  Cu     0.000542     -0.000529      0.423411 
 O110  O    -0.088998      0.093674      0.441212 
 C111  C    -0.117257      0.118112      0.499974 
 O112  O    -0.092981      0.089692     -0.441274 
 O113  O     0.094577      0.089241      0.441378 
 C114  C     0.118863      0.117812     -0.499967 
 O115  O     0.090406      0.093522     -0.441281 
 O116  O    -0.093031     -0.090642      0.441674 
 C117  C    -0.117244     -0.119068     -0.499560 
 O118  O    -0.088962     -0.094594     -0.440819 
 O119  O     0.090345     -0.094476      0.441423 
 C120  C     0.118808     -0.118816     -0.499909 
 O121  O     0.094579     -0.090252     -0.441237 
 Cu122  Cu    -0.499407      0.499578     -0.423152 
 Cu123  Cu    -0.499284      0.499648      0.423411 
 O124  O     0.406544     -0.410785      0.441214 
 C125  C     0.382105     -0.382528      0.499977 
 O126  O     0.410523     -0.406803     -0.441271 
 O127  O    -0.409190     -0.406757      0.441676 
 C128  C    -0.380761     -0.382547     -0.499559 
 O129  O    -0.405238     -0.410830     -0.440819 
 O130  O     0.410971      0.405586      0.441378 
 C131  C     0.382401      0.381302     -0.499968 
 O132  O     0.406695      0.409757     -0.441281 
 O133  O    -0.405360      0.409823      0.441420 
 C134  C    -0.381014      0.381362     -0.499913 
 O135  O    -0.409579      0.405587     -0.441241 
 C136  C    -0.214428      0.221031      0.436990 
 C137  C    -0.277972      0.284400      0.437026 
 C138  C    -0.312541      0.313312     -0.499933 
 C139  C    -0.283405      0.278861     -0.436922 
 C140  C    -0.219851      0.215505     -0.436954 
 C141  C    -0.185380      0.186501     -0.500000 
 H142  H    -0.300252      0.311005      0.387710 
 H143  H    -0.310015      0.301045     -0.387581 
 H144  H    -0.197552      0.188924     -0.387633 
 H145  H    -0.187806      0.198848      0.387649 
 N146  N    -0.001685     -0.000290     -0.317880 
 C147  C     0.043653     -0.076772     -0.290480 
 C148  C     0.041773      0.077245     -0.290443 
 C149  C    -0.090605     -0.001348     -0.290479 
 C150  C     0.041833      0.077174      0.290729 
 H151  H     0.108288      0.079113     -0.310062 
 H152  H     0.009189      0.135038     -0.310592 
 C153  C     0.043604     -0.076845      0.290690 
 H154  H     0.012575     -0.135339     -0.310724 
 H155  H     0.110226     -0.076930     -0.310021 
 C156  C    -0.090599     -0.001390      0.290749 
 H157  H    -0.125622      0.055082     -0.310388 
 H158  H    -0.124304     -0.058549     -0.310440 
 H159  H     0.012382     -0.135396      0.310820 
 H160  H     0.110143     -0.077147      0.310319 
 H161  H     0.108389      0.078904      0.310248 
 H162  H     0.009394      0.134987      0.310992 
 H163  H    -0.124267     -0.058645      0.310634 
 N164  N    -0.001675     -0.000363      0.318136 
 H165  H    -0.125634      0.054987      0.310745 
 C166  C     0.285128      0.278514      0.436989 
 C167  C     0.221664      0.215066      0.436989 
 C168  C     0.187001      0.186195     -0.499996 
 C169  C     0.215804      0.220933     -0.436986 
 C170  C     0.279266      0.284379     -0.436986 
 C171  C     0.314008      0.313173     -0.499996 
 H172  H     0.199586      0.188316      0.387667 
 H173  H     0.189047      0.198868     -0.387662 
 H174  H     0.301338      0.311133     -0.387662 
 H175  H     0.311881      0.300585      0.387667 
 C176  C     0.284699     -0.279943     -0.436950 
 C177  C     0.221329     -0.216403     -0.436918 
 C178  C     0.186871     -0.187278     -0.499929 
 C179  C     0.215789     -0.221845      0.437030 
 C180  C     0.279173     -0.285375      0.436994 
 C181  C     0.313709     -0.314412     -0.499996 
 H182  H     0.199140     -0.189794     -0.387577 
 H183  H     0.189179     -0.199574      0.387714 
 H184  H     0.301361     -0.311995      0.387652 
 H185  H     0.311286     -0.302234     -0.387629 
 N186  N    -0.499558     -0.498127     -0.317881 
 C187  C     0.422724      0.458770     -0.290444 
 C188  C    -0.423315      0.456160     -0.290480 
 C189  C    -0.498083     -0.409186     -0.290479 
 C190  C    -0.423242      0.456208      0.290689 
 H191  H    -0.423471      0.389567     -0.310024 
 H192  H    -0.364618      0.486972     -0.310720 
 C193  C     0.422793      0.458713      0.290729 
 H194  H     0.365103      0.491631     -0.310598 
 H195  H     0.420546      0.392244     -0.310058 
 C196  C    -0.498041     -0.409193      0.290748 
 H197  H    -0.440738     -0.375749     -0.310434 
 H198  H     0.445672     -0.373893     -0.310395 
 H199  H     0.365152      0.491435      0.310992 
 H200  H     0.420746      0.392147      0.310247 
 H201  H    -0.423255      0.389650      0.310322 
 H202  H    -0.364560      0.487164      0.310816 
 H203  H     0.445769     -0.373879      0.310751 
 N204  N    -0.499486     -0.498137      0.318136 
 H205  H    -0.440639     -0.375788      0.310626 
 C206  C    -0.219657     -0.216698      0.437428 
 C207  C    -0.283116     -0.280147      0.437428 
 C208  C    -0.312288     -0.314505     -0.499537 
 C209  C    -0.277829     -0.285442     -0.436504 
 C210  C    -0.214365     -0.221988     -0.436504 
 C211  C    -0.185295     -0.187533     -0.499537 
 H212  H    -0.309632     -0.302469      0.388092 
 H213  H    -0.300139     -0.311990     -0.387174 
 H214  H    -0.187814     -0.199682     -0.387175 
 H215  H    -0.197329     -0.190184      0.388092 
loop_  
_geom_bond_atom_site_label_1  
_geom_bond_atom_site_label_2  
Cu0   Cu1 
Cu0   O4 
Cu0   O7 
Cu0   O10 
Cu0   O13 
Cu0   N38 
Cu1   O2 
Cu1   O5 
Cu1   O8 
Cu1   O11 
Cu1   N56 
O2   C3 
C3   O4 
C3   C33 
O5   C6 
C6   O7 
C6   C60 
O8   C9 
C9   O10 
C9   C103 
O11   C12 
C12   O13 
C12   C70 
Cu14   Cu15 
Cu14   O18 
Cu14   O21 
Cu14   O24 
Cu14   O27 
Cu14   N78 
Cu15   O16 
Cu15   O19 
Cu15   O22 
Cu15   O25 
Cu15   N96 
O16   C17 
C17   O18 
C17   C73 
O19   C20 
C20   O21 
C20   C100 
O22   C23 
C23   O24 
C23   C63 
O25   C26 
C26   O27 
C26   C30 
C28   C29 
C28   C33 
C28   H37 
C29   C30 
C29   H34 
C30   C31 
C31   C32 
C31   H35 
C32   C33 
C32   H36 
N38   C39 
N38   C40 
N38   C41 
C39   C153 
C39   H46 
C39   H47 
C40   C150 
C40   H43 
C40   H44 
C41   C156 
C41   H49 
C41   H50 
C42   C148 
C42   H53 
C42   H54 
C42   N56 
C45   C147 
C45   H51 
C45   H52 
C45   N56 
C48   C149 
C48   H55 
C48   N56 
C48   H57 
C58   C59 
C58   C63 
C58   H67 
C59   C60 
C59   H64 
C60   C61 
C61   C62 
C61   H65 
C62   C63 
C62   H66 
C68   C69 
C68   C73 
C68   H77 
C69   C70 
C69   H74 
C70   C71 
C71   C72 
C71   H75 
C72   C73 
C72   H76 
N78   C79 
N78   C80 
N78   C81 
C79   C193 
C79   H86 
C79   H87 
C80   C190 
C80   H83 
C80   H84 
C81   C196 
C81   H89 
C81   H90 
C82   C188 
C82   H93 
C82   H94 
C82   N96 
C85   C187 
C85   H91 
C85   H92 
C85   N96 
C88   C189 
C88   H95 
C88   N96 
C88   H97 
C98   C99 
C98   C103 
C98   H107 
C99   C100 
C99   H104 
C100   C101 
C101   C102 
C101   H105 
C102   C103 
C102   H106 
Cu108   Cu109 
Cu108   O112 
Cu108   O115 
Cu108   O118 
Cu108   O121 
Cu108   N146 
Cu109   O110 
Cu109   O113 
Cu109   O116 
Cu109   O119 
Cu109   N164 
O110   C111 
C111   O112 
C111   C141 
O113   C114 
C114   O115 
C114   C168 
O116   C117 
C117   O118 
C117   C211 
O119   C120 
C120   O121 
C120   C178 
Cu122   Cu123 
Cu122   O126 
Cu122   O129 
Cu122   O132 
Cu122   O135 
Cu122   N186 
Cu123   O124 
Cu123   O127 
Cu123   O130 
Cu123   O133 
Cu123   N204 
O124   C125 
C125   O126 
C125   C181 
O127   C128 
C128   O129 
C128   C208 
O130   C131 
C131   O132 
C131   C171 
O133   C134 
C134   O135 
C134   C138 
C136   C137 
C136   C141 
C136   H145 
C137   C138 
C137   H142 
C138   C139 
C139   C140 
C139   H143 
C140   C141 
C140   H144 
N146   C147 
N146   C148 
N146   C149 
C147   H154 
C147   H155 
C148   H151 
C148   H152 
C149   H157 
C149   H158 
C150   H161 
C150   H162 
C150   N164 
C153   H159 
C153   H160 
C153   N164 
C156   H163 
C156   N164 
C156   H165 
C166   C167 
C166   C171 
C166   H175 
C167   C168 
C167   H172 
C168   C169 
C169   C170 
C169   H173 
C170   C171 
C170   H174 
C176   C177 
C176   C181 
C176   H185 
C177   C178 
C177   H182 
C178   C179 
C179   C180 
C179   H183 
C180   C181 
C180   H184 
N186   C187 
N186   C188 
N186   C189 
C187   H194 
C187   H195 
C188   H191 
C188   H192 
C189   H197 
C189   H198 
C190   H201 
C190   H202 
C190   N204 
C193   H199 
C193   H200 
C193   N204 
C196   H203 
C196   N204 
C196   H205 
C206   C207 
C206   C211 
C206   H215 
C207   C208 
C207   H212 
C208   C209 
C209   C210 
C209   H213 
C210   C211 
C210   H214 
  
#END  
