data_
_symmetry_cell_setting           triclinic 
_symmetry_space_group_name_H-M   'P 1' 
_symmetry_Int_Tables_number      1 
loop_ 
_symmetry_equiv_pos_site_id 
_symmetry_equiv_pos_as_xyz 
1 x,y,z 
_cell_length_a             15.411734        
_cell_length_b             15.409047        
_cell_length_c             19.150665        
_cell_angle_alpha          90.105603        
_cell_angle_beta           89.893775        
_cell_angle_gamma          89.993705        
loop_  
_atom_site_label   
_atom_site_type_symbol  
_atom_site_fract_x  
_atom_site_fract_y  
_atom_site_fract_z 
 Cu0  Cu     0.001398     -0.000770      0.068180 
 Cu1  Cu     0.001249     -0.001529     -0.067924 
 O2  O    -0.082911      0.095753     -0.058659 
 C3  C    -0.116042      0.116303      0.000131 
 O4  O    -0.095794      0.083424      0.058923 
 O5  O     0.098848      0.082345     -0.059246 
 C6  C     0.118948      0.116065     -0.000672 
 O7  O     0.085379      0.096482      0.058064 
 O8  O    -0.095978     -0.085544     -0.057749 
 C9  C    -0.115814     -0.118841      0.001001 
 O10  O    -0.082399     -0.098440      0.059586 
 O11  O     0.085268     -0.098884     -0.058582 
 C12  C     0.118759     -0.118622      0.000032 
 O13  O     0.098758     -0.084851      0.058645 
 Cu14  Cu    -0.499053      0.498781      0.068179 
 Cu15  Cu    -0.498291      0.498930     -0.067924 
 O16  O     0.404442     -0.416899     -0.058664 
 C17  C     0.383888     -0.383766      0.000125 
 O18  O     0.416766     -0.404011      0.058917 
 O19  O    -0.414287     -0.403827     -0.057748 
 C20  C    -0.380993     -0.383994      0.001002 
 O21  O    -0.401398     -0.417409      0.059588 
 O22  O     0.417848      0.401315     -0.059244 
 C23  C     0.384126      0.381218     -0.000670 
 O24  O     0.403711      0.414789      0.058066 
 O25  O    -0.400951      0.414899     -0.058582 
 C26  C    -0.381212      0.381407      0.000033 
 O27  O    -0.414983      0.401405      0.058646 
 C28  C    -0.207842      0.225166     -0.062876 
 C29  C    -0.271992      0.289313     -0.062899 
 C30  C    -0.312384      0.312632      0.000053 
 C31  C    -0.289360      0.272582      0.063032 
 C32  C    -0.225185      0.208463      0.063066 
 C33  C    -0.184820      0.185120      0.000108 
 H34  H    -0.289957      0.320731     -0.111849 
 H35  H    -0.321030      0.290781      0.111966 
 H36  H    -0.207231      0.177075      0.112028 
 H37  H    -0.176191      0.206976     -0.111818 
 N38  N    -0.001993      0.001950      0.181994 
 C39  C     0.059471     -0.063553      0.209161 
 C40  C     0.023960      0.087903      0.209494 
 C41  C    -0.089554     -0.018349      0.209394 
 C42  C     0.023651      0.087858     -0.208898 
 H43  H     0.089239      0.103942      0.189729 
 H44  H    -0.020591      0.137711      0.188961 
 C45  C     0.059331     -0.063741     -0.209276 
 H46  H     0.041393     -0.128019      0.188666 
 H47  H     0.125057     -0.049065      0.189174 
 C48  C    -0.089557     -0.018740     -0.208990 
 H49  H    -0.136133      0.029803      0.189262 
 H50  H    -0.110240     -0.082081      0.189164 
 H51  H     0.040846     -0.128289     -0.189342 
 H52  H     0.124831     -0.049676     -0.189039 
 H53  H     0.088628      0.104387     -0.188921 
 H54  H    -0.021367      0.137413     -0.188378 
 H55  H    -0.109697     -0.082876     -0.189361 
 N56  N    -0.002126      0.001732     -0.181701 
 H57  H    -0.136436      0.028857     -0.188150 
 C58  C     0.294078      0.270251     -0.063442 
 C59  C     0.229921      0.206101     -0.063442 
 C60  C     0.187885      0.184735     -0.000800 
 C61  C     0.209320      0.226734      0.061835 
 C62  C     0.273452      0.290858      0.061836 
 C63  C     0.315451      0.312287     -0.000800 
 H64  H     0.213332      0.173096     -0.112115 
 H65  H     0.176383      0.210154      0.110541 
 H66  H     0.290036      0.323796      0.110541 
 H67  H     0.327084      0.286835     -0.112115 
 C68  C     0.291714     -0.274631      0.063062 
 C69  C     0.227588     -0.210463      0.063029 
 C70  C     0.187539     -0.187445      0.000050 
 C71  C     0.210866     -0.227836     -0.062902 
 C72  C     0.275020     -0.291978     -0.062880 
 C73  C     0.315066     -0.314995      0.000103 
 H74  H     0.209383     -0.178795      0.111963 
 H75  H     0.179448     -0.209875     -0.111852 
 H76  H     0.293216     -0.323629     -0.111822 
 H77  H     0.323101     -0.292581      0.112024 
 N78  N     0.498243     -0.497817      0.181994 
 C79  C     0.412344      0.476098      0.209494 
 C80  C    -0.436174      0.440806      0.209160 
 C81  C    -0.481592     -0.410211      0.209392 
 C82  C    -0.435984      0.440948     -0.209277 
 H83  H    -0.450564      0.375186      0.189177 
 H84  H    -0.371746      0.458980      0.188662 
 C85  C     0.412389      0.476404     -0.208899 
 H86  H     0.362479     -0.479416      0.188963 
 H87  H     0.396404      0.410784      0.189729 
 C88  C    -0.481202     -0.410206     -0.208992 
 H89  H    -0.417902     -0.389425      0.189161 
 H90  H     0.470195     -0.363695      0.189261 
 H91  H     0.362774     -0.478649     -0.188375 
 H92  H     0.395965      0.411388     -0.188924 
 H93  H    -0.449949      0.375415     -0.189040 
 H94  H    -0.371475      0.459533     -0.189341 
 H95  H     0.471137     -0.363392     -0.188153 
 N96  N     0.498461     -0.497683     -0.181702 
 H97  H    -0.417110     -0.389964     -0.189360 
 C98  C    -0.225869     -0.209821     -0.061559 
 C99  C    -0.289998     -0.273944     -0.061559 
 C100  C    -0.312001     -0.315379      0.001133 
 C101  C    -0.270503     -0.293478      0.063828 
 C102  C    -0.206344     -0.229328      0.063828 
 C103  C    -0.184435     -0.187828      0.001133 
 H104  H    -0.322488     -0.290965     -0.110312 
 H105  H    -0.287537     -0.326050      0.112545 
 H106  H    -0.173773     -0.212301      0.112544 
 H107  H    -0.208842     -0.177329     -0.110312 
 Cu108  Cu     0.001398     -0.000770     -0.431820 
 Cu109  Cu     0.001250     -0.001529      0.432076 
 O110  O    -0.082910      0.095753      0.441341 
 C111  C    -0.116042      0.116303     -0.499869 
 O112  O    -0.095794      0.083423     -0.441077 
 O113  O     0.098848      0.082345      0.440755 
 C114  C     0.118949      0.116065      0.499329 
 O115  O     0.085379      0.096481     -0.441935 
 O116  O    -0.095977     -0.085545      0.442250 
 C117  C    -0.115814     -0.118842     -0.499000 
 O118  O    -0.082399     -0.098441     -0.440414 
 O119  O     0.085269     -0.098884      0.441418 
 C120  C     0.118759     -0.118623     -0.499968 
 O121  O     0.098759     -0.084852     -0.441355 
 Cu122  Cu    -0.499052      0.498781     -0.431821 
 Cu123  Cu    -0.498290      0.498929      0.432076 
 O124  O     0.404442     -0.416900      0.441336 
 C125  C     0.383889     -0.383767     -0.499875 
 O126  O     0.416766     -0.404012     -0.441082 
 O127  O    -0.414286     -0.403828      0.442251 
 C128  C    -0.380992     -0.383995     -0.498999 
 O129  O    -0.401397     -0.417410     -0.440413 
 O130  O     0.417848      0.401315      0.440757 
 C131  C     0.384127      0.381217      0.499330 
 O132  O     0.403711      0.414789     -0.441934 
 O133  O    -0.400951      0.414898      0.441418 
 C134  C    -0.381211      0.381406     -0.499967 
 O135  O    -0.414983      0.401404     -0.441354 
 C136  C    -0.207841      0.225166      0.437124 
 C137  C    -0.271991      0.289312      0.437101 
 C138  C    -0.312384      0.312631     -0.499947 
 C139  C    -0.289360      0.272581     -0.436968 
 C140  C    -0.225185      0.208463     -0.436934 
 C141  C    -0.184819      0.185119     -0.499892 
 H142  H    -0.289956      0.320731      0.388151 
 H143  H    -0.321030      0.290780     -0.388034 
 H144  H    -0.207231      0.177075     -0.387971 
 H145  H    -0.176190      0.206976      0.388182 
 N146  N    -0.001993      0.001951     -0.318006 
 C147  C     0.059477     -0.063547     -0.290839 
 C148  C     0.023953      0.087906     -0.290506 
 C149  C    -0.089552     -0.018356     -0.290606 
 C150  C     0.023658      0.087856      0.291102 
 H151  H     0.089231      0.103951     -0.310271 
 H152  H    -0.020602      0.137710     -0.311039 
 C153  C     0.059325     -0.063747      0.290723 
 H154  H     0.041405     -0.128015     -0.311334 
 H155  H     0.125062     -0.049054     -0.310826 
 C156  C    -0.089559     -0.018733      0.291010 
 H157  H    -0.136135      0.029791     -0.310738 
 H158  H    -0.110232     -0.082090     -0.310836 
 H159  H     0.040834     -0.128293      0.310658 
 H160  H     0.124826     -0.049687      0.310961 
 H161  H     0.088637      0.104379      0.311079 
 H162  H    -0.021355      0.137415      0.311623 
 H163  H    -0.109705     -0.082867      0.310640 
 N164  N    -0.002127      0.001731      0.318299 
 H165  H    -0.136434      0.028868      0.311850 
 C166  C     0.294078      0.270250      0.436559 
 C167  C     0.229922      0.206101      0.436558 
 C168  C     0.187886      0.184734      0.499200 
 C169  C     0.209321      0.226733     -0.438164 
 C170  C     0.273452      0.290857     -0.438163 
 C171  C     0.315452      0.312286      0.499201 
 H172  H     0.213332      0.173096      0.387885 
 H173  H     0.176384      0.210153     -0.389458 
 H174  H     0.290038      0.323794     -0.389458 
 H175  H     0.327083      0.286835      0.387886 
 C176  C     0.291715     -0.274631     -0.436938 
 C177  C     0.227589     -0.210464     -0.436971 
 C178  C     0.187540     -0.187445     -0.499950 
 C179  C     0.210867     -0.227836      0.437098 
 C180  C     0.275021     -0.291979      0.437120 
 C181  C     0.315066     -0.314996     -0.499897 
 H182  H     0.209384     -0.178795     -0.388037 
 H183  H     0.179449     -0.209875      0.388148 
 H184  H     0.293216     -0.323630      0.388178 
 H185  H     0.323102     -0.292581     -0.387976 
 N186  N     0.498243     -0.497817     -0.318006 
 C187  C     0.412341      0.476105     -0.290506 
 C188  C    -0.436179      0.440800     -0.290840 
 C189  C    -0.481584     -0.410213     -0.290608 
 C190  C    -0.435978      0.440954      0.290723 
 H191  H    -0.450575      0.375182     -0.310823 
 H192  H    -0.371750      0.458968     -0.311338 
 C193  C     0.412392      0.476396      0.291102 
 H194  H     0.362480     -0.479405     -0.311037 
 H195  H     0.396396      0.410792     -0.310271 
 C196  C    -0.481209     -0.410204      0.291009 
 H197  H    -0.417893     -0.389433     -0.310839 
 H198  H     0.470207     -0.363693     -0.310739 
 H199  H     0.362772     -0.478661      0.311625 
 H200  H     0.395974      0.411379      0.311075 
 H201  H    -0.449937      0.375419      0.310960 
 H202  H    -0.371471      0.459544      0.310659 
 H203  H     0.471126     -0.363394      0.311847 
 N204  N     0.498462     -0.497683      0.318298 
 H205  H    -0.417118     -0.389956      0.310640 
 C206  C    -0.225868     -0.209822      0.438440 
 C207  C    -0.289998     -0.273945      0.438440 
 C208  C    -0.312000     -0.315380     -0.498868 
 C209  C    -0.270502     -0.293479     -0.436173 
 C210  C    -0.206344     -0.229328     -0.436173 
 C211  C    -0.184434     -0.187828     -0.498868 
 H212  H    -0.322487     -0.290966      0.389687 
 H213  H    -0.287536     -0.326051     -0.387456 
 H214  H    -0.173774     -0.212300     -0.387456 
 H215  H    -0.208840     -0.177331      0.389687 
loop_  
_geom_bond_atom_site_label_1  
_geom_bond_atom_site_label_2  
Cu0   Cu1 
Cu0   O4 
Cu0   O7 
Cu0   O10 
Cu0   O13 
Cu0   N38 
Cu1   O2 
Cu1   O5 
Cu1   O8 
Cu1   O11 
Cu1   N56 
O2   C3 
C3   O4 
C3   C33 
O5   C6 
C6   O7 
C6   C60 
O8   C9 
C9   O10 
C9   C103 
O11   C12 
C12   O13 
C12   C70 
Cu14   Cu15 
Cu14   O18 
Cu14   O21 
Cu14   O24 
Cu14   O27 
Cu14   N78 
Cu15   O16 
Cu15   O19 
Cu15   O22 
Cu15   O25 
Cu15   N96 
O16   C17 
C17   O18 
C17   C73 
O19   C20 
C20   O21 
C20   C100 
O22   C23 
C23   O24 
C23   C63 
O25   C26 
C26   O27 
C26   C30 
C28   C29 
C28   C33 
C28   H37 
C29   C30 
C29   H34 
C30   C31 
C31   C32 
C31   H35 
C32   C33 
C32   H36 
N38   C39 
N38   C40 
N38   C41 
C39   C153 
C39   H46 
C39   H47 
C40   C150 
C40   H43 
C40   H44 
C41   C156 
C41   H49 
C41   H50 
C42   C148 
C42   H53 
C42   H54 
C42   N56 
C45   C147 
C45   H51 
C45   H52 
C45   N56 
C48   C149 
C48   H55 
C48   N56 
C48   H57 
C58   C59 
C58   C63 
C58   H67 
C59   C60 
C59   H64 
C60   C61 
C61   C62 
C61   H65 
C62   C63 
C62   H66 
C68   C69 
C68   C73 
C68   H77 
C69   C70 
C69   H74 
C70   C71 
C71   C72 
C71   H75 
C72   C73 
C72   H76 
N78   C79 
N78   C80 
N78   C81 
C79   C193 
C79   H86 
C79   H87 
C80   C190 
C80   H83 
C80   H84 
C81   C196 
C81   H89 
C81   H90 
C82   C188 
C82   H93 
C82   H94 
C82   N96 
C85   C187 
C85   H91 
C85   H92 
C85   N96 
C88   C189 
C88   H95 
C88   N96 
C88   H97 
C98   C99 
C98   C103 
C98   H107 
C99   C100 
C99   H104 
C100   C101 
C101   C102 
C101   H105 
C102   C103 
C102   H106 
Cu108   Cu109 
Cu108   O112 
Cu108   O115 
Cu108   O118 
Cu108   O121 
Cu108   N146 
Cu109   O110 
Cu109   O113 
Cu109   O116 
Cu109   O119 
Cu109   N164 
O110   C111 
C111   O112 
C111   C141 
O113   C114 
C114   O115 
C114   C168 
O116   C117 
C117   O118 
C117   C211 
O119   C120 
C120   O121 
C120   C178 
Cu122   Cu123 
Cu122   O126 
Cu122   O129 
Cu122   O132 
Cu122   O135 
Cu122   N186 
Cu123   O124 
Cu123   O127 
Cu123   O130 
Cu123   O133 
Cu123   N204 
O124   C125 
C125   O126 
C125   C181 
O127   C128 
C128   O129 
C128   C208 
O130   C131 
C131   O132 
C131   C171 
O133   C134 
C134   O135 
C134   C138 
C136   C137 
C136   C141 
C136   H145 
C137   C138 
C137   H142 
C138   C139 
C139   C140 
C139   H143 
C140   C141 
C140   H144 
N146   C147 
N146   C148 
N146   C149 
C147   H154 
C147   H155 
C148   H151 
C148   H152 
C149   H157 
C149   H158 
C150   H161 
C150   H162 
C150   N164 
C153   H159 
C153   H160 
C153   N164 
C156   H163 
C156   N164 
C156   H165 
C166   C167 
C166   C171 
C166   H175 
C167   C168 
C167   H172 
C168   C169 
C169   C170 
C169   H173 
C170   C171 
C170   H174 
C176   C177 
C176   C181 
C176   H185 
C177   C178 
C177   H182 
C178   C179 
C179   C180 
C179   H183 
C180   C181 
C180   H184 
N186   C187 
N186   C188 
N186   C189 
C187   H194 
C187   H195 
C188   H191 
C188   H192 
C189   H197 
C189   H198 
C190   H201 
C190   H202 
C190   N204 
C193   H199 
C193   H200 
C193   N204 
C196   H203 
C196   N204 
C196   H205 
C206   C207 
C206   C211 
C206   H215 
C207   C208 
C207   H212 
C208   C209 
C209   C210 
C209   H213 
C210   C211 
C210   H214 
  
#END  
