data_
_symmetry_cell_setting           triclinic 
_symmetry_space_group_name_H-M   'P 1' 
_symmetry_Int_Tables_number      1 
loop_ 
_symmetry_equiv_pos_site_id 
_symmetry_equiv_pos_as_xyz 
1 x,y,z 
_cell_length_a             14.664917        
_cell_length_b             16.111568        
_cell_length_c             19.081287        
_cell_angle_alpha          92.389993        
_cell_angle_beta           91.827063        
_cell_angle_gamma          90.099008        
loop_  
_atom_site_label   
_atom_site_type_symbol  
_atom_site_fract_x  
_atom_site_fract_y  
_atom_site_fract_z 
 Cu0  Cu     0.003780      0.007616      0.073875 
 Cu1  Cu    -0.001384      0.002512     -0.062739 
 O2  O    -0.096767      0.089280     -0.050829 
 C3  C    -0.112467      0.125049      0.008313 
 O4  O    -0.073721      0.108400      0.066793 
 O5  O     0.094931      0.088162     -0.053131 
 C6  C     0.134702      0.107951      0.005317 
 O7  O     0.113850      0.080082      0.064416 
 O8  O    -0.096867     -0.082573     -0.059448 
 C9  C    -0.129170     -0.100494     -0.000912 
 O10  O    -0.107115     -0.064917      0.058344 
 O11  O     0.094348     -0.085606     -0.049899 
 C12  C     0.112946     -0.118276      0.008626 
 O13  O     0.080327     -0.094299      0.067085 
 Cu14  Cu    -0.496131     -0.490419      0.070551 
 Cu15  Cu    -0.497695      0.497332     -0.065888 
 O16  O     0.410306     -0.412137     -0.062869 
 C17  C     0.375432     -0.388520     -0.005116 
 O18  O     0.395086     -0.418605      0.054249 
 O19  O    -0.398947     -0.415676     -0.049398 
 C20  C    -0.380390     -0.377610      0.009463 
 O21  O    -0.416827     -0.392787      0.067021 
 O22  O     0.407542      0.408267     -0.053476 
 C23  C     0.393094      0.379740      0.006740 
 O24  O     0.424899      0.410804      0.064712 
 O25  O    -0.405443      0.409382     -0.054614 
 C26  C    -0.368408      0.396960      0.005335 
 O27  O    -0.386577      0.436094      0.062559 
 C28  C    -0.318769      0.257260     -0.036584 
 C29  C    -0.301084      0.327314      0.007703 
 C30  C    -0.223314      0.331437      0.052502 
 C31  C    -0.163945      0.263335      0.054298 
 C32  C    -0.181355      0.193570      0.009582 
 C33  C    -0.260162      0.188807     -0.034123 
 O34  O    -0.207475      0.401172      0.094495 
 C35  C    -0.118390      0.438085      0.092907 
 C36  C    -0.127359     -0.476056      0.063128 
 C37  C    -0.034643     -0.434537      0.052422 
 C38  C    -0.042540     -0.345450      0.027796 
 O39  O    -0.277928      0.117578     -0.073841 
 C40  C    -0.370891      0.089189     -0.078493 
 C41  C    -0.371214     -0.004468     -0.070799 
 C42  C    -0.467600     -0.041201     -0.066198 
 C43  C    -0.467788     -0.134521     -0.053383 
 H44  H    -0.103554      0.265975      0.089298 
 H45  H    -0.378774      0.254827     -0.072006 
 H46  H    -0.411058      0.119658     -0.036968 
 H47  H    -0.401163      0.106005     -0.129488 
 H48  H    -0.089906      0.442365      0.146994 
 H49  H    -0.072010      0.399375      0.061191 
 H50  H    -0.335896     -0.035120     -0.114890 
 H51  H    -0.331077     -0.019047     -0.023054 
 H52  H    -0.165959     -0.480667      0.012569 
 H53  H    -0.168294     -0.436249      0.098317 
 H54  H     0.006361     -0.434372      0.101750 
 H55  H     0.003381     -0.472264      0.013801 
 H56  H     0.496611     -0.008267     -0.023479 
 H57  H     0.492875     -0.029679     -0.114842 
 H58  H     0.462543     -0.157956     -0.047702 
 H59  H    -0.437491     -0.170402     -0.096918 
 H60  H    -0.428786     -0.148200     -0.005085 
 H61  H     0.024742     -0.319643      0.017059 
 H62  H    -0.085066     -0.342617     -0.020512 
 H63  H    -0.073105     -0.304199      0.067751 
 N64  N    -0.006928      0.016282      0.325136 
 C65  C     0.027110     -0.064171      0.296666 
 C66  C    -0.099899      0.029106      0.295132 
 C67  C     0.052655      0.082906      0.300898 
 C68  C    -0.099192      0.026878      0.213059 
 H69  H    -0.145831     -0.019091      0.313593 
 H70  H    -0.125728      0.089288      0.315594 
 C71  C     0.028879     -0.065053      0.214811 
 H72  H     0.096199     -0.074868      0.318917 
 H73  H    -0.016725     -0.114611      0.313995 
 C74  C     0.053037      0.082057      0.218917 
 H75  H     0.028664      0.143289      0.322404 
 H76  H     0.122416      0.074178      0.322648 
 H77  H     0.099163     -0.074829      0.197346 
 H78  H    -0.012988     -0.116563      0.191256 
 H79  H    -0.143416     -0.023570      0.190615 
 H80  H    -0.126570      0.085219      0.192791 
 H81  H     0.123099      0.073679      0.200528 
 N82  N    -0.005425      0.014164      0.188050 
 H83  H     0.028445      0.141679      0.199224 
 C84  C     0.311096      0.261880     -0.054735 
 C85  C     0.335418      0.302534      0.009365 
 C86  C     0.303307      0.272859      0.072695 
 C87  C     0.237800      0.208987      0.069714 
 C88  C     0.210794      0.170714      0.005343 
 C89  C     0.252182      0.193380     -0.056479 
 O90  O     0.335516      0.308094      0.135511 
 C91  C     0.311517      0.275060      0.201518 
 C92  C     0.246017      0.334159      0.238771 
 C93  C     0.168085      0.368240      0.192369 
 C94  C     0.116482      0.439787      0.228656 
 O95  O     0.232384      0.152043     -0.118932 
 C96  C     0.308684      0.122369     -0.158014 
 C97  C     0.269828      0.073745     -0.222027 
 C98  C     0.341053      0.036923     -0.271188 
 C99  C     0.297516     -0.010161     -0.335387 
 H100  H     0.204648      0.190345      0.117038 
 H101  H     0.336021      0.283936     -0.103957 
 H102  H     0.350753      0.174651     -0.173841 
 H103  H     0.351467      0.082812     -0.124630 
 H104  H     0.284190      0.211494      0.196285 
 H105  H     0.375378      0.270516      0.233052 
 H106  H     0.226636      0.022929     -0.204819 
 H107  H     0.225561      0.115571     -0.251931 
 H108  H     0.217224      0.302906      0.283345 
 H109  H     0.285747      0.386637      0.262156 
 H110  H     0.195638      0.390811      0.143602 
 H111  H     0.120529      0.317542      0.176177 
 H112  H     0.384287      0.087188     -0.288713 
 H113  H     0.386432     -0.004448     -0.241812 
 H114  H     0.349344     -0.035080     -0.370849 
 H115  H     0.255297     -0.062281     -0.319913 
 H116  H     0.252433      0.030174     -0.365833 
 H117  H     0.061246      0.462553      0.194361 
 H118  H     0.086163      0.420773      0.277337 
 H119  H     0.162376      0.492435      0.242192 
 C120  C     0.256151     -0.308087      0.056077 
 C121  C     0.306165     -0.319492     -0.004758 
 C122  C     0.292618     -0.266444     -0.060760 
 C123  C     0.228588     -0.201973     -0.054382 
 C124  C     0.179397     -0.189744      0.006998 
 C125  C     0.193034     -0.243024      0.063131 
 O126  O     0.343104     -0.278569     -0.119572 
 C127  C     0.335352     -0.220174     -0.174138 
 C128  C     0.397701     -0.248200     -0.232612 
 C129  C     0.392650     -0.191857     -0.295395 
 C130  C     0.445751     -0.224346     -0.358470 
 O131  O     0.145034     -0.231875      0.123526 
 C132  C     0.157870     -0.290736      0.177720 
 C133  C     0.104177     -0.263607      0.241442 
 C134  C     0.114093     -0.322540      0.302535 
 C135  C     0.070038     -0.288956      0.369752 
 H136  H     0.217441     -0.160246     -0.097457 
 H137  H     0.267148     -0.350746      0.098493 
 H138  H     0.135201     -0.352615      0.157271 
 H139  H     0.230882     -0.293864      0.192854 
 H140  H     0.264058     -0.218210     -0.194004 
 H141  H     0.354750     -0.157714     -0.152926 
 H142  H     0.128276     -0.201539      0.259738 
 H143  H     0.031497     -0.257379      0.226207 
 H144  H     0.468660     -0.250599     -0.212053 
 H145  H     0.378841     -0.311836     -0.250615 
 H146  H     0.320760     -0.184070     -0.311964 
 H147  H     0.418710     -0.129936     -0.278660 
 H148  H     0.083596     -0.383176      0.286627 
 H149  H     0.186978     -0.334157      0.313889 
 H150  H     0.080689     -0.331286      0.412963 
 H151  H     0.098983     -0.228396      0.386900 
 H152  H    -0.003652     -0.279819      0.362352 
 H153  H     0.437585     -0.183579     -0.403005 
 H154  H    -0.481241     -0.229147     -0.345800 
 H155  H     0.422198     -0.286524     -0.376102 
 N156  N     0.490862     -0.488548      0.318652 
 C157  C    -0.482614      0.429066      0.289431 
 C158  C     0.399476     -0.467814      0.289468 
 C159  C    -0.443456     -0.426940      0.295150 
 C160  C     0.398843     -0.472528      0.207479 
 H161  H     0.348315      0.490330      0.310068 
 H162  H     0.381397     -0.404770      0.308704 
 C163  C    -0.477256      0.430155      0.208069 
 H164  H    -0.415825      0.411785      0.312457 
 H165  H     0.467422      0.382555      0.304964 
 C166  C    -0.446703     -0.424247      0.213467 
 H167  H    -0.458400     -0.365416      0.319555 
 H168  H    -0.374686     -0.444587      0.314145 
 H169  H    -0.406372      0.420095      0.192168 
 H170  H     0.481719      0.379367      0.182828 
 H171  H     0.352785      0.477984      0.185945 
 H172  H     0.373486     -0.413965      0.186362 
 H173  H    -0.378254     -0.434015      0.192612 
 N174  N     0.491662     -0.489095      0.182291 
 H175  H    -0.470411     -0.363109      0.196596 
 C176  C    -0.286462     -0.282536     -0.056160 
 C177  C    -0.311440     -0.308440      0.009514 
 C178  C    -0.275247     -0.268149      0.071128 
 C179  C    -0.220139     -0.197680      0.065630 
 C180  C    -0.196118     -0.171155     -0.000162 
 C181  C    -0.230445     -0.212651     -0.061769 
 O182  O    -0.292879     -0.297081      0.135840 
 C183  C    -0.226579     -0.278478      0.191523 
 C184  C    -0.237407     -0.340708      0.248192 
 C185  C    -0.160662     -0.337296      0.304578 
 C186  C    -0.169105     -0.405156      0.357959 
 O187  O    -0.209453     -0.184444     -0.126085 
 C188  C    -0.254901     -0.221907     -0.187164 
 C189  C    -0.245952     -0.164569     -0.247445 
 C190  C    -0.296089     -0.197265     -0.314630 
 C191  C    -0.327915     -0.128032     -0.362330 
 H192  H    -0.193926     -0.164523      0.113133 
 H193  H    -0.312685     -0.316519     -0.103263 
 H194  H    -0.224310     -0.283070     -0.199279 
 H195  H    -0.327884     -0.230638     -0.177495 
 H196  H    -0.157218     -0.282338      0.171039 
 H197  H    -0.237532     -0.214776      0.212845 
 H198  H    -0.274194     -0.103561     -0.231665 
 H199  H    -0.173421     -0.155109     -0.258034 
 H200  H    -0.302871     -0.329430      0.273442 
 H201  H    -0.239972     -0.403876      0.223772 
 H202  H    -0.094819     -0.343865      0.278846 
 H203  H    -0.160215     -0.275766      0.332077 
 H204  H    -0.251479     -0.240631     -0.343427 
 H205  H    -0.355139     -0.234370     -0.300457 
 H206  H    -0.365424     -0.153858     -0.408957 
 H207  H    -0.373927     -0.084751     -0.335017 
 H208  H    -0.270197     -0.092019     -0.380476 
 H209  H    -0.112707     -0.401742      0.397263 
 H210  H    -0.233108     -0.399305      0.386077 
 H211  H    -0.168419     -0.467397      0.332240 
 Cu212  Cu     0.000245      0.010384     -0.423935 
 Cu213  Cu    -0.002046      0.008428      0.439490 
 O214  O    -0.102660      0.089927      0.453284 
 C215  C    -0.120202      0.124686     -0.487363 
 O216  O    -0.084739      0.105144     -0.428679 
 O217  O     0.084968      0.101924      0.451883 
 C218  C     0.121301      0.124153     -0.488797 
 O219  O     0.106810      0.090169     -0.430995 
 O220  O    -0.092879     -0.082895      0.440403 
 C221  C    -0.124967     -0.103490      0.498483 
 O222  O    -0.104188     -0.070269     -0.441207 
 O223  O     0.101337     -0.072248      0.451890 
 C224  C     0.119745     -0.105740     -0.489879 
 O225  O     0.083872     -0.085623     -0.431877 
 Cu226  Cu    -0.496112     -0.488835     -0.432704 
 Cu227  Cu     0.495495     -0.493865      0.430797 
 O228  O     0.417340     -0.394813      0.436587 
 C229  C     0.381959     -0.374824      0.494782 
 O230  O     0.398966     -0.410038     -0.447512 
 O231  O    -0.396884     -0.417289      0.443704 
 C232  C    -0.373844     -0.381054     -0.497773 
 O233  O    -0.405966     -0.396671     -0.438427 
 O234  O     0.386806      0.431039      0.440157 
 C235  C     0.377302      0.395436      0.497996 
 O236  O     0.417737      0.416308     -0.443803 
 O237  O    -0.422810      0.408494      0.437962 
 C238  C    -0.381997      0.392644      0.495640 
 O239  O    -0.395146      0.430566     -0.445519 
 C240  C    -0.263866      0.315259     -0.439959 
 C241  C    -0.312917      0.323835      0.496620 
 C242  C    -0.299187      0.267923      0.439325 
 C243  C    -0.237418      0.202546      0.447983 
 C244  C    -0.188535      0.193964     -0.488602 
 C245  C    -0.202369      0.249653     -0.431216 
 O246  O    -0.345646      0.276724      0.376417 
 C247  C    -0.328115      0.217989      0.319544 
 C248  C    -0.382854      0.240604      0.254250 
 C249  C    -0.374232      0.177258      0.192393 
 C250  C    -0.434444      0.198141      0.128396 
 O251  O    -0.155900      0.240284     -0.368342 
 C252  C    -0.177052      0.295629     -0.309968 
 C253  C    -0.118763      0.274915     -0.245818 
 C254  C    -0.133932      0.333905     -0.181884 
 C255  C    -0.070091      0.316533     -0.119023 
 H256  H    -0.226432      0.157701      0.404626 
 H257  H    -0.274830      0.359887     -0.396473 
 H258  H    -0.163614      0.360064     -0.323869 
 H259  H    -0.249994      0.289555     -0.298819 
 H260  H    -0.254840      0.218356      0.308698 
 H261  H    -0.347018      0.155389      0.335074 
 H262  H    -0.133720      0.210951     -0.231627 
 H263  H    -0.046189      0.276528     -0.258901 
 H264  H    -0.455234      0.247605      0.266923 
 H265  H    -0.359195      0.301443      0.237875 
 H266  H    -0.302480      0.174029      0.177046 
 H267  H    -0.392129      0.114890      0.209210 
 H268  H    -0.124321      0.398599     -0.196717 
 H269  H    -0.205259      0.328935     -0.166021 
 H270  H    -0.083669      0.359169     -0.074117 
 H271  H    -0.078958      0.252881     -0.101772 
 H272  H     0.001922      0.324028     -0.131874 
 H273  H    -0.425157      0.152585      0.084782 
 H274  H     0.492857      0.198198      0.140654 
 H275  H    -0.417891      0.259787      0.109592 
 N276  N    -0.023017      0.016161     -0.175143 
 C277  C     0.017468     -0.061320     -0.204462 
 C278  C    -0.117181      0.022894     -0.204195 
 C279  C     0.029176      0.087540     -0.199234 
 C280  C    -0.117568      0.022149     -0.286342 
 H281  H    -0.158129     -0.028407     -0.185313 
 H282  H    -0.147824      0.080595     -0.182786 
 C283  C     0.017884     -0.060881     -0.286112 
 H284  H     0.087788     -0.067741     -0.183160 
 H285  H    -0.021657     -0.114983     -0.187346 
 C286  C     0.028813      0.087671     -0.281057 
 H287  H     0.000230      0.145497     -0.176837 
 H288  H     0.099435      0.083945     -0.178129 
 H289  H     0.088625     -0.065761     -0.303683 
 H290  H    -0.019921     -0.114768     -0.309880 
 H291  H    -0.157684     -0.030421     -0.309559 
 H292  H    -0.149763      0.078830     -0.305892 
 H293  H     0.098901      0.084477     -0.299867 
 N294  N    -0.023506      0.016150     -0.311891 
 H295  H    -0.000944      0.145423     -0.300505 
 C296  C     0.273403      0.189089     -0.457021 
 C297  C     0.186329      0.196353     -0.488437 
 C298  C     0.161539      0.267009      0.474844 
 C299  C     0.226030      0.330171      0.466902 
 C300  C     0.313037      0.322891      0.498463 
 C301  C     0.338352      0.251879     -0.465294 
 O302  O     0.072296      0.270809      0.451991 
 C303  C     0.044686      0.323467      0.396767 
 C304  C    -0.058586      0.314851      0.389103 
 C305  C    -0.101497      0.351314      0.322703 
 C306  C    -0.085098      0.298730      0.255425 
 O307  O     0.427414      0.248166     -0.441289 
 C308  C     0.460411      0.178174     -0.404197 
 C309  C    -0.435761      0.182173     -0.402748 
 C310  C    -0.387335      0.110689     -0.365770 
 C311  C    -0.393474      0.114910     -0.285566 
 H312  H     0.207394      0.386292      0.439742 
 H313  H     0.291638      0.133452     -0.429242 
 H314  H     0.433728      0.182698     -0.350969 
 H315  H     0.436424      0.119621     -0.430442 
 H316  H     0.064142      0.388471      0.409787 
 H317  H     0.078929      0.302544      0.348707 
 H318  H    -0.413269      0.182214     -0.457273 
 H319  H    -0.412785      0.241887     -0.378016 
 H320  H    -0.077026      0.248595      0.389769 
 H321  H    -0.089532      0.344565      0.435657 
 H322  H    -0.175497      0.357755      0.329520 
 H323  H    -0.075488      0.414761      0.317253 
 H324  H    -0.415149      0.051038     -0.387210 
 H325  H    -0.314887      0.110759     -0.379409 
 H326  H    -0.356714      0.062844     -0.262299 
 H327  H    -0.362992      0.172654     -0.262674 
 H328  H    -0.464366      0.112133     -0.269038 
 H329  H    -0.120387      0.325493      0.210108 
 H330  H    -0.012309      0.294498      0.244073 
 H331  H    -0.111126      0.235183      0.259220 
 C332  C     0.247960     -0.178594      0.452567 
 C333  C     0.189295     -0.174395     -0.490889 
 C334  C     0.193748     -0.234615     -0.439532 
 C335  C     0.256576     -0.299791     -0.446793 
 C336  C     0.314673     -0.304394      0.496460 
 C337  C     0.310182     -0.244320      0.444947 
 O338  O     0.136343     -0.229453     -0.384047 
 C339  C     0.140680     -0.293147     -0.333540 
 C340  C     0.077489     -0.270958     -0.274096 
 C341  C     0.076609     -0.336224     -0.217699 
 C342  C     0.016251     -0.311930     -0.156067 
 O343  O     0.367181     -0.250504      0.389188 
 C344  C     0.355602     -0.193757      0.333447 
 C345  C     0.417848     -0.219200      0.274010 
 C346  C     0.410676     -0.162266      0.211399 
 C347  C     0.469510     -0.191003      0.149934 
 H348  H     0.260838     -0.347791     -0.408034 
 H349  H     0.243859     -0.130731      0.413696 
 H350  H     0.283889     -0.194835      0.314384 
 H351  H     0.372269     -0.130488      0.353949 
 H352  H     0.120507     -0.352819     -0.359833 
 H353  H     0.211106     -0.298693     -0.312466 
 H354  H     0.489153     -0.220573      0.293948 
 H355  H     0.400723     -0.282993      0.255365 
 H356  H     0.099294     -0.210989     -0.249295 
 H357  H     0.007580     -0.262151     -0.295325 
 H358  H     0.053127     -0.396173     -0.241700 
 H359  H     0.146779     -0.346427     -0.197580 
 H360  H     0.338959     -0.158783      0.192738 
 H361  H     0.430562     -0.098606      0.228928 
 H362  H     0.462660     -0.148631      0.106404 
 H363  H    -0.457797     -0.193395      0.165639 
 H364  H     0.449385     -0.253255      0.129073 
 H365  H     0.017558     -0.360332     -0.117160 
 H366  H     0.039511     -0.253698     -0.129027 
 H367  H    -0.055123     -0.303316     -0.173450 
 N368  N    -0.498988      0.492643     -0.181368 
 C369  C    -0.461226      0.414591     -0.212015 
 C370  C     0.407553     -0.497285     -0.211485 
 C371  C    -0.441992     -0.437739     -0.203422 
 C372  C     0.408416     -0.496567     -0.293456 
 H373  H     0.364039      0.451966     -0.194325 
 H374  H     0.378393     -0.439023     -0.189924 
 C375  C    -0.458611      0.417615     -0.293883 
 H376  H    -0.392076      0.405011     -0.189405 
 H377  H     0.496696      0.362059     -0.196377 
 C378  C    -0.442462     -0.434352     -0.285216 
 H379  H    -0.467342     -0.379007     -0.179643 
 H380  H    -0.371735     -0.445879     -0.182483 
 H381  H    -0.387863      0.411898     -0.311296 
 H382  H    -0.497202      0.365245     -0.319427 
 H383  H     0.367538      0.451322     -0.317044 
 H384  H     0.377148     -0.439247     -0.312562 
 H385  H    -0.372280     -0.437940     -0.304295 
 N386  N    -0.497202      0.496583     -0.318416 
 H387  H    -0.470960     -0.374969     -0.302246 
 C388  C    -0.335880     -0.239527      0.466376 
 C389  C    -0.306845     -0.311094      0.499560 
 C390  C    -0.218366     -0.317084     -0.470835 
 C391  C    -0.159478     -0.248251     -0.472004 
 C392  C    -0.189326     -0.175873      0.496393 
 C393  C    -0.277387     -0.170350      0.465786 
 O394  O    -0.193237     -0.390550     -0.442122 
 C395  C    -0.097594     -0.406681     -0.431893 
 C396  C    -0.085168     -0.497667     -0.415504 
 C397  C     0.015407      0.475417     -0.412392 
 C398  C     0.028942      0.384632     -0.393470 
 O399  O    -0.303707     -0.096686      0.437851 
 C400  C    -0.399862     -0.081119      0.429882 
 C401  C    -0.414985      0.009395      0.412925 
 C402  C     0.483620      0.033956      0.411253 
 C403  C     0.466163      0.124381      0.392678 
 H404  H    -0.090877     -0.250123     -0.447958 
 H405  H    -0.404690     -0.237720      0.442686 
 H406  H    -0.428738     -0.122289      0.387222 
 H407  H    -0.433476     -0.095352      0.478862 
 H408  H    -0.061460     -0.392162     -0.479682 
 H409  H    -0.070234     -0.366241     -0.388168 
 H410  H    -0.377472      0.049758      0.452074 
 H411  H    -0.385435      0.020824      0.361858 
 H412  H    -0.116616      0.490778     -0.365162 
 H413  H    -0.122545      0.463150     -0.455589 
 H414  H     0.045769      0.485204     -0.463473 
 H415  H     0.053560     -0.484253     -0.373775 
 H416  H     0.445934     -0.007262      0.373065 
 H417  H     0.454864      0.023006      0.462696 
 H418  H     0.393197      0.139537      0.394800 
 H419  H    -0.497080      0.168214      0.429194 
 H420  H     0.487914      0.136051      0.339429 
 H421  H     0.101404      0.367305     -0.394062 
 H422  H     0.004810      0.373767     -0.340745 
 H423  H    -0.008254      0.341895     -0.430674 
loop_  
_geom_bond_atom_site_label_1  
_geom_bond_atom_site_label_2  
Cu0   Cu1 
Cu0   O4 
Cu0   O7 
Cu0   O10 
Cu0   O13 
Cu0   N82 
Cu1   O2 
Cu1   O5 
Cu1   O8 
Cu1   O11 
Cu1   N276 
O2   C3 
C3   O4 
C3   C32 
O5   C6 
C6   O7 
C6   C88 
O8   C9 
C9   O10 
C9   C180 
O11   C12 
C12   O13 
C12   C124 
Cu14   Cu15 
Cu14   O18 
Cu14   O21 
Cu14   O24 
Cu14   O27 
Cu14   N174 
Cu15   O16 
Cu15   O19 
Cu15   O22 
Cu15   O25 
Cu15   N368 
O16   C17 
C17   O18 
C17   C121 
O19   C20 
C20   O21 
C20   C177 
O22   C23 
C23   O24 
C23   C85 
O25   C26 
C26   O27 
C26   C29 
C28   C29 
C28   C33 
C28   H45 
C29   C30 
C30   C31 
C30   O34 
C31   C32 
C31   H44 
C32   C33 
C33   O39 
O34   C35 
C35   C36 
C35   H48 
C35   H49 
C36   C37 
C36   H52 
C36   H53 
C37   C38 
C37   H54 
C37   H55 
C38   H61 
C38   H62 
C38   H63 
O39   C40 
C40   C41 
C40   H46 
C40   H47 
C41   C42 
C41   H50 
C41   H51 
C42   C43 
C42   H56 
C42   H57 
C43   H58 
C43   H59 
C43   H60 
N64   C65 
N64   C66 
N64   C67 
N64   Cu213 
C65   C71 
C65   H72 
C65   H73 
C66   C68 
C66   H69 
C66   H70 
C67   C74 
C67   H75 
C67   H76 
C68   H79 
C68   H80 
C68   N82 
C71   H77 
C71   H78 
C71   N82 
C74   H81 
C74   N82 
C74   H83 
C84   C85 
C84   C89 
C84   H101 
C85   C86 
C86   C87 
C86   O90 
C87   C88 
C87   H100 
C88   C89 
C89   O95 
O90   C91 
C91   C92 
C91   H104 
C91   H105 
C92   C93 
C92   H108 
C92   H109 
C93   C94 
C93   H110 
C93   H111 
C94   H117 
C94   H118 
C94   H119 
O95   C96 
C96   C97 
C96   H102 
C96   H103 
C97   C98 
C97   H106 
C97   H107 
C98   C99 
C98   H112 
C98   H113 
C99   H114 
C99   H115 
C99   H116 
C120   C121 
C120   C125 
C120   H137 
C121   C122 
C122   C123 
C122   O126 
C123   C124 
C123   H136 
C124   C125 
C125   O131 
O126   C127 
C127   C128 
C127   H140 
C127   H141 
C128   C129 
C128   H144 
C128   H145 
C129   C130 
C129   H146 
C129   H147 
C130   H153 
C130   H154 
C130   H155 
O131   C132 
C132   C133 
C132   H138 
C132   H139 
C133   C134 
C133   H142 
C133   H143 
C134   C135 
C134   H148 
C134   H149 
C135   H150 
C135   H151 
C135   H152 
N156   C157 
N156   C158 
N156   C159 
N156   Cu227 
C157   C163 
C157   H164 
C157   H165 
C158   C160 
C158   H161 
C158   H162 
C159   C166 
C159   H167 
C159   H168 
C160   H171 
C160   H172 
C160   N174 
C163   H169 
C163   H170 
C163   N174 
C166   H173 
C166   N174 
C166   H175 
C176   C177 
C176   C181 
C176   H193 
C177   C178 
C178   C179 
C178   O182 
C179   C180 
C179   H192 
C180   C181 
C181   O187 
O182   C183 
C183   C184 
C183   H196 
C183   H197 
C184   C185 
C184   H200 
C184   H201 
C185   C186 
C185   H202 
C185   H203 
C186   H209 
C186   H210 
C186   H211 
O187   C188 
C188   C189 
C188   H194 
C188   H195 
C189   C190 
C189   H198 
C189   H199 
C190   C191 
C190   H204 
C190   H205 
C191   H206 
C191   H207 
C191   H208 
Cu212   Cu213 
Cu212   O216 
Cu212   O219 
Cu212   O222 
Cu212   O225 
Cu212   N294 
Cu213   O214 
Cu213   O217 
Cu213   O220 
Cu213   O223 
O214   C215 
C215   O216 
C215   C244 
O217   C218 
C218   O219 
C218   C297 
O220   C221 
C221   O222 
C221   C392 
O223   C224 
C224   O225 
C224   C333 
Cu226   Cu227 
Cu226   O230 
Cu226   O233 
Cu226   O236 
Cu226   O239 
Cu226   N386 
Cu227   O228 
Cu227   O231 
Cu227   O234 
Cu227   O237 
O228   C229 
C229   O230 
C229   C336 
O231   C232 
C232   O233 
C232   C389 
O234   C235 
C235   O236 
C235   C300 
O237   C238 
C238   O239 
C238   C241 
C240   C241 
C240   C245 
C240   H257 
C241   C242 
C242   C243 
C242   O246 
C243   C244 
C243   H256 
C244   C245 
C245   O251 
O246   C247 
C247   C248 
C247   H260 
C247   H261 
C248   C249 
C248   H264 
C248   H265 
C249   C250 
C249   H266 
C249   H267 
C250   H273 
C250   H274 
C250   H275 
O251   C252 
C252   C253 
C252   H258 
C252   H259 
C253   C254 
C253   H262 
C253   H263 
C254   C255 
C254   H268 
C254   H269 
C255   H270 
C255   H271 
C255   H272 
N276   C277 
N276   C278 
N276   C279 
C277   C283 
C277   H284 
C277   H285 
C278   C280 
C278   H281 
C278   H282 
C279   C286 
C279   H287 
C279   H288 
C280   H291 
C280   H292 
C280   N294 
C283   H289 
C283   H290 
C283   N294 
C286   H293 
C286   N294 
C286   H295 
C296   C297 
C296   C301 
C296   H313 
C297   C298 
C298   C299 
C298   O302 
C299   C300 
C299   H312 
C300   C301 
C301   O307 
O302   C303 
C303   C304 
C303   H316 
C303   H317 
C304   C305 
C304   H320 
C304   H321 
C305   C306 
C305   H322 
C305   H323 
C306   H329 
C306   H330 
C306   H331 
O307   C308 
C308   C309 
C308   H314 
C308   H315 
C309   C310 
C309   H318 
C309   H319 
C310   C311 
C310   H324 
C310   H325 
C311   H326 
C311   H327 
C311   H328 
C332   C333 
C332   C337 
C332   H349 
C333   C334 
C334   C335 
C334   O338 
C335   C336 
C335   H348 
C336   C337 
C337   O343 
O338   C339 
C339   C340 
C339   H352 
C339   H353 
C340   C341 
C340   H356 
C340   H357 
C341   C342 
C341   H358 
C341   H359 
C342   H365 
C342   H366 
C342   H367 
O343   C344 
C344   C345 
C344   H350 
C344   H351 
C345   C346 
C345   H354 
C345   H355 
C346   C347 
C346   H360 
C346   H361 
C347   H362 
C347   H363 
C347   H364 
N368   C369 
N368   C370 
N368   C371 
C369   C375 
C369   H376 
C369   H377 
C370   C372 
C370   H373 
C370   H374 
C371   C378 
C371   H379 
C371   H380 
C372   H383 
C372   H384 
C372   N386 
C375   H381 
C375   H382 
C375   N386 
C378   H385 
C378   N386 
C378   H387 
C388   C389 
C388   C393 
C388   H405 
C389   C390 
C390   C391 
C390   O394 
C391   C392 
C391   H404 
C392   C393 
C393   O399 
O394   C395 
C395   C396 
C395   H408 
C395   H409 
C396   C397 
C396   H412 
C396   H413 
C397   C398 
C397   H414 
C397   H415 
C398   H421 
C398   H422 
C398   H423 
O399   C400 
C400   C401 
C400   H406 
C400   H407 
C401   C402 
C401   H410 
C401   H411 
C402   C403 
C402   H416 
C402   H417 
C403   H418 
C403   H419 
C403   H420 
  
#END  
