data_
_symmetry_cell_setting           triclinic 
_symmetry_space_group_name_H-M   'P 1' 
_symmetry_Int_Tables_number      1 
loop_ 
_symmetry_equiv_pos_site_id 
_symmetry_equiv_pos_as_xyz 
1 x,y,z 
_cell_length_a             15.251832        
_cell_length_b             15.554640        
_cell_length_c             19.007739        
_cell_angle_alpha          88.736750        
_cell_angle_beta           90.037327        
_cell_angle_gamma          89.879829        
loop_  
_atom_site_label   
_atom_site_type_symbol  
_atom_site_fract_x  
_atom_site_fract_y  
_atom_site_fract_z 
 Cu0  Cu     0.003144      0.001669      0.071409 
 Cu1  Cu    -0.003439      0.000327     -0.065169 
 O2  O    -0.085382      0.098759     -0.057421 
 C3  C    -0.117256      0.118612      0.001960 
 O4  O    -0.094335      0.087263      0.061754 
 O5  O     0.099494      0.079686     -0.061934 
 C6  C     0.120488      0.115572     -0.004839 
 O7  O     0.087638      0.097035      0.055274 
 O8  O    -0.103646     -0.076815     -0.048577 
 C9  C    -0.119440     -0.113006      0.010812 
 O10  O    -0.083122     -0.094158      0.068832 
 O11  O     0.073557     -0.102047     -0.053900 
 C12  C     0.113792     -0.120007      0.003247 
 O13  O     0.101322     -0.082908      0.061578 
 Cu14  Cu    -0.494216     -0.497691      0.064998 
 Cu15  Cu     0.499800     -0.498665     -0.071615 
 O16  O     0.401579     -0.414192     -0.062368 
 C17  C     0.388950     -0.377178     -0.004005 
 O18  O     0.428813     -0.395363      0.053271 
 O19  O    -0.413262     -0.402793     -0.066201 
 C20  C    -0.377153     -0.384181     -0.008054 
 O21  O    -0.393610     -0.420385      0.051210 
 O22  O     0.414734      0.406085     -0.057856 
 C23  C     0.381572      0.387491      0.002169 
 O24  O     0.402662      0.422904      0.059461 
 O25  O    -0.402665      0.415864     -0.061529 
 C26  C    -0.380020      0.384332     -0.001739 
 O27  O    -0.412368      0.403837      0.057554 
 C28  C    -0.161143      0.270208      0.018004 
 C29  C    -0.186417      0.186649      0.001583 
 C30  C    -0.273284      0.166611     -0.015791 
 C31  C    -0.336123      0.232730     -0.017613 
 C32  C    -0.310835      0.316312     -0.001260 
 C33  C    -0.223965      0.336348      0.016123 
 O34  O    -0.292273      0.082588     -0.029898 
 C35  C    -0.381934      0.059610     -0.042026 
 C36  C    -0.387325     -0.037114     -0.051071 
 C37  C    -0.481238     -0.068483     -0.064454 
 C38  C    -0.488505     -0.166350     -0.070547 
 O39  O    -0.204923      0.420361      0.030237 
 C40  C    -0.115218      0.443263      0.042291 
 C41  C    -0.109596     -0.459981      0.051081 
 C42  C    -0.015563     -0.428755      0.064170 
 C43  C    -0.008039     -0.330845      0.069685 
 H44  H    -0.404530      0.219932     -0.030852 
 H45  H    -0.092737      0.282977      0.031277 
 H46  H    -0.091309      0.409124      0.090000 
 H47  H    -0.075109      0.423418     -0.002782 
 H48  H    -0.422097      0.079208      0.003090 
 H49  H    -0.405887      0.093882     -0.089658 
 H50  H    -0.136147     -0.427079      0.003710 
 H51  H    -0.151956     -0.441098      0.095020 
 H52  H    -0.344781     -0.055697     -0.094979 
 H53  H    -0.360852     -0.070168     -0.003740 
 H54  H     0.476057     -0.046998     -0.021624 
 H55  H     0.493288     -0.037367     -0.112915 
 H56  H     0.009912     -0.459535      0.112770 
 H57  H     0.027009     -0.450723      0.021426 
 H58  H     0.060299     -0.310536      0.076273 
 H59  H    -0.033355     -0.297472      0.022361 
 H60  H    -0.044805     -0.307270      0.114904 
 H61  H     0.443195     -0.186732     -0.077248 
 H62  H    -0.451690     -0.189471     -0.115920 
 H63  H    -0.463128     -0.200080     -0.023405 
 N64  N    -0.000153      0.007201      0.322088 
 C65  C     0.045453     -0.069992      0.296201 
 C66  C    -0.091080      0.007324      0.294770 
 C67  C     0.044945      0.084198      0.292816 
 C68  C    -0.091366      0.005831      0.212659 
 H69  H    -0.126528     -0.048693      0.316880 
 H70  H    -0.125418      0.064964      0.313400 
 C71  C     0.046201     -0.069937      0.214057 
 H72  H     0.113055     -0.071243      0.316884 
 H73  H     0.012459     -0.127981      0.317391 
 C74  C     0.043824      0.084134      0.210591 
 H75  H     0.012840      0.142395      0.312810 
 H76  H     0.113073      0.084766      0.312276 
 H77  H     0.114286     -0.069367      0.194517 
 H78  H     0.015371     -0.128682      0.194154 
 H79  H    -0.125596     -0.051701      0.194019 
 H80  H    -0.127244      0.061943      0.190785 
 H81  H     0.111348      0.085974      0.189900 
 N82  N    -0.000635      0.006341      0.184947 
 H83  H     0.009862      0.141653      0.189098 
 C84  C     0.206762      0.223443      0.058811 
 C85  C     0.188292      0.185991     -0.005890 
 C86  C     0.232530      0.214213     -0.067056 
 C87  C     0.294559      0.280312     -0.061888 
 C88  C     0.313192      0.317604      0.002895 
 C89  C     0.268772      0.289509      0.064031 
 O90  O     0.214293      0.177661     -0.130438 
 C91  C     0.271304      0.195035     -0.189313 
 C92  C     0.244674      0.136337     -0.248397 
 C93  C     0.308229      0.134978     -0.310972 
 C94  C     0.291044      0.058693     -0.358857 
 O95  O     0.286587      0.325925      0.127564 
 C96  C     0.229700      0.307351      0.186339 
 C97  C     0.255924      0.364986      0.246218 
 C98  C     0.192392      0.364577      0.308849 
 C99  C     0.209841      0.439215      0.358360 
 H100  H     0.328496      0.303036     -0.109213 
 H101  H     0.172671      0.200711      0.106068 
 H102  H     0.161185      0.319879      0.170618 
 H103  H     0.236264      0.239179      0.202576 
 H104  H     0.265065      0.262973     -0.206311 
 H105  H     0.339747      0.182460     -0.173416 
 H106  H     0.321475      0.345717      0.265130 
 H107  H     0.261949      0.431284      0.225678 
 H108  H     0.238199      0.070498     -0.226929 
 H109  H     0.179211      0.155516     -0.267593 
 H110  H     0.302285      0.195703     -0.341585 
 H111  H     0.376282      0.131708     -0.291715 
 H112  H     0.124348      0.368651      0.289654 
 H113  H     0.198137      0.302930      0.338201 
 H114  H     0.166651      0.437567      0.404250 
 H115  H     0.277503      0.438136      0.378130 
 H116  H     0.198873     -0.498495      0.331690 
 H117  H     0.334126      0.059091     -0.404815 
 H118  H     0.302422     -0.002701     -0.330895 
 H119  H     0.223328      0.058802     -0.378516 
 C120  C     0.248265     -0.315806     -0.048490 
 C121  C     0.319542     -0.308453     -0.002552 
 C122  C     0.324109     -0.240423      0.044838 
 C123  C     0.254609     -0.181254      0.047626 
 C124  C     0.183277     -0.188662      0.001738 
 C125  C     0.178659     -0.256775     -0.045574 
 O126  O     0.396733     -0.234447      0.087001 
 C127  C     0.417948     -0.152908      0.116309 
 C128  C    -0.486337     -0.155461      0.139228 
 C129  C    -0.450469     -0.067234      0.159684 
 C130  C    -0.352859     -0.068978      0.179171 
 O131  O     0.105967     -0.262977     -0.087632 
 C132  C     0.084835     -0.344711     -0.116631 
 C133  C    -0.010905     -0.342506     -0.139473 
 C134  C    -0.046744     -0.431065     -0.159041 
 C135  C    -0.144395     -0.429637     -0.178395 
 H136  H     0.256843     -0.128496      0.084548 
 H137  H     0.246064     -0.368535     -0.085438 
 H138  H     0.128171     -0.356561     -0.161756 
 H139  H     0.095953     -0.396001     -0.076717 
 H140  H     0.406994     -0.101382      0.076570 
 H141  H     0.374559     -0.141227      0.161434 
 H142  H    -0.051352     -0.316505     -0.096865 
 H143  H    -0.018576     -0.297523     -0.184609 
 H144  H    -0.478747     -0.201079      0.183946 
 H145  H    -0.445868     -0.180880      0.096388 
 H146  H    -0.460590     -0.021086      0.115646 
 H147  H    -0.488937     -0.042794      0.203925 
 H148  H    -0.008343     -0.456134     -0.203072 
 H149  H    -0.036525     -0.476601     -0.114598 
 H150  H    -0.167562     -0.493821     -0.192564 
 H151  H    -0.184578     -0.408708     -0.133908 
 H152  H    -0.157568     -0.385669     -0.223194 
 H153  H    -0.329689     -0.005012      0.193941 
 H154  H    -0.339833     -0.113515      0.223625 
 H155  H    -0.312611     -0.089364      0.134546 
 N156  N    -0.476485     -0.484073      0.314592 
 C157  C     0.456116      0.456777      0.288052 
 C158  C    -0.494529     -0.396894      0.285259 
 C159  C    -0.389882      0.488686      0.287791 
 C160  C    -0.494408     -0.397375      0.203006 
 H161  H     0.441887     -0.374288      0.305280 
 H162  H    -0.444527     -0.352213      0.304781 
 C163  C     0.456053      0.456637      0.206158 
 H164  H     0.468577      0.391341      0.309338 
 H165  H     0.391378      0.477033      0.307430 
 C166  C    -0.389797      0.488033      0.205508 
 H167  H    -0.339337     -0.467397      0.307670 
 H168  H    -0.374018      0.424341      0.309531 
 H169  H     0.467864      0.391103      0.187272 
 H170  H     0.391535      0.477434      0.185827 
 H171  H     0.441849     -0.375288      0.182159 
 H172  H    -0.444568     -0.352919      0.181358 
 H173  H    -0.374251      0.423331      0.186521 
 N174  N    -0.476253     -0.484734      0.177425 
 H175  H    -0.338946     -0.468581      0.183891 
 C176  C    -0.217883     -0.203908     -0.057766 
 C177  C    -0.185641     -0.184106      0.008944 
 C178  C    -0.214703     -0.229614      0.069112 
 C179  C    -0.278035     -0.293707      0.060865 
 C180  C    -0.310450     -0.313426     -0.005919 
 C181  C    -0.281122     -0.267966     -0.066099 
 O182  O    -0.181182     -0.210931      0.134078 
 C183  C    -0.198038     -0.268999      0.192457 
 C184  C    -0.134216     -0.249247      0.251404 
 C185  C    -0.141374     -0.311064      0.315291 
 C186  C    -0.070481     -0.295896      0.370894 
 O187  O    -0.313702     -0.286052     -0.131503 
 C188  C    -0.295005     -0.227558     -0.189345 
 C189  C    -0.355496     -0.247835     -0.250263 
 C190  C    -0.349176     -0.183956     -0.312815 
 C191  C    -0.419112     -0.199587     -0.369117 
 H192  H    -0.302430     -0.328240      0.107353 
 H193  H    -0.193379     -0.169205     -0.104140 
 H194  H    -0.305804     -0.160843     -0.173101 
 H195  H    -0.225816     -0.234691     -0.204905 
 H196  H    -0.266384     -0.260868      0.209927 
 H197  H    -0.189073     -0.335939      0.176104 
 H198  H    -0.340304     -0.312790     -0.268632 
 H199  H    -0.423709     -0.249124     -0.231271 
 H200  H    -0.066798     -0.251626      0.230796 
 H201  H    -0.145117     -0.183054      0.268722 
 H202  H    -0.206626     -0.304324      0.339392 
 H203  H    -0.136993     -0.377938      0.297722 
 H204  H    -0.355694     -0.117780     -0.294016 
 H205  H    -0.283481     -0.188298     -0.336555 
 H206  H    -0.411053     -0.155492     -0.414550 
 H207  H    -0.415256     -0.265342     -0.388785 
 H208  H    -0.485593     -0.190366     -0.348311 
 H209  H    -0.079068     -0.339043      0.416889 
 H210  H    -0.004479     -0.307003      0.349793 
 H211  H    -0.072650     -0.229710      0.389801 
 Cu212  Cu    -0.002526     -0.002138     -0.427109 
 Cu213  Cu    -0.001026      0.000191      0.436207 
 O214  O    -0.080687      0.100593      0.443728 
 C215  C    -0.116362      0.117648     -0.497476 
 O216  O    -0.101702      0.078530     -0.439135 
 O217  O     0.102410      0.077298      0.443305 
 C218  C     0.115664      0.116422     -0.499461 
 O219  O     0.077335      0.100151     -0.441163 
 O220  O    -0.105207     -0.076826      0.446753 
 C221  C    -0.120549     -0.116706     -0.495225 
 O222  O    -0.084203     -0.101219     -0.436508 
 O223  O     0.077657     -0.101122      0.450831 
 C224  C     0.114704     -0.119481     -0.490502 
 O225  O     0.098128     -0.083098     -0.432658 
 Cu226  Cu     0.499425      0.495575     -0.436017 
 Cu227  Cu    -0.499440      0.499590      0.427230 
 O228  O     0.399210     -0.420487      0.434416 
 C229  C     0.382129     -0.385107      0.492597 
 O230  O     0.418593     -0.404488     -0.448676 
 O231  O    -0.418962     -0.400591      0.435890 
 C232  C    -0.382491     -0.385181      0.494537 
 O233  O    -0.397630     -0.425273     -0.447529 
 O234  O     0.421600      0.396550      0.441611 
 C235  C     0.383904      0.378798      0.499924 
 O236  O     0.397836      0.416213     -0.442132 
 O237  O    -0.399134      0.420006      0.437770 
 C238  C    -0.383326      0.380909      0.495915 
 O239  O    -0.418815      0.397130     -0.445080 
 C240  C    -0.231596      0.200618      0.439549 
 C241  C    -0.183358      0.188168     -0.498361 
 C242  C    -0.199162      0.238115     -0.438903 
 C243  C    -0.266885      0.299115     -0.441638 
 C244  C    -0.315347      0.311320      0.496364 
 C245  C    -0.299410      0.261523      0.436856 
 O246  O    -0.146939      0.226348     -0.380628 
 C247  C    -0.151639      0.286591     -0.324533 
 C248  C    -0.077670      0.266418     -0.272897 
 C249  C    -0.072726      0.328527     -0.211277 
 C250  C    -0.000642      0.305088     -0.157808 
 O251  O    -0.351616      0.273384      0.378594 
 C252  C    -0.347093      0.213192      0.322469 
 C253  C    -0.420576      0.234210      0.270595 
 C254  C    -0.426085      0.172135      0.208993 
 C255  C    -0.497711      0.196427      0.155364 
 H256  H    -0.280815      0.338455     -0.396105 
 H257  H    -0.217785      0.161262      0.394026 
 H258  H    -0.282703      0.218690      0.296489 
 H259  H    -0.354228      0.147191      0.343942 
 H260  H    -0.145250      0.352643     -0.346056 
 H261  H    -0.215840      0.280536     -0.298325 
 H262  H    -0.483723      0.234296      0.298809 
 H263  H    -0.411380      0.299842      0.249313 
 H264  H    -0.085929      0.200667     -0.251624 
 H265  H    -0.014648      0.267111     -0.301296 
 H266  H    -0.061466      0.394102     -0.232209 
 H267  H    -0.136463      0.329890     -0.184059 
 H268  H    -0.362278      0.169965      0.181928 
 H269  H    -0.438270      0.106738      0.229949 
 H270  H     0.499388      0.149879      0.112780 
 H271  H     0.437193      0.198403      0.180076 
 H272  H    -0.485465      0.259996      0.130881 
 H273  H     0.001735      0.351617     -0.115187 
 H274  H    -0.011983      0.241342     -0.133346 
 H275  H     0.064404      0.303975     -0.182650 
 N276  N    -0.023040     -0.014055     -0.177305 
 C277  C    -0.006331     -0.101993     -0.202240 
 C278  C    -0.109434      0.013891     -0.205053 
 C279  C     0.045094      0.043366     -0.206992 
 C280  C    -0.110358      0.011785     -0.287315 
 H281  H    -0.160662     -0.028365     -0.182511 
 H282  H    -0.123735      0.079165     -0.186729 
 C283  C    -0.006738     -0.103505     -0.284460 
 H284  H     0.057225     -0.124743     -0.181505 
 H285  H    -0.056666     -0.145486     -0.180031 
 C286  C     0.043924      0.042416     -0.288832 
 H287  H     0.034498      0.109273     -0.188498 
 H288  H     0.109585      0.021860     -0.187087 
 H289  H     0.056615     -0.126773     -0.304435 
 H290  H    -0.057126     -0.148109     -0.303498 
 H291  H    -0.161404     -0.032215     -0.306259 
 H292  H    -0.126086      0.075820     -0.309764 
 H293  H     0.108298      0.021631     -0.308599 
 N294  N    -0.024278     -0.016535     -0.314414 
 H295  H     0.031576      0.107744     -0.310391 
 C296  C     0.269703      0.163183      0.480990 
 C297  C     0.183734      0.185809      0.498783 
 C298  C     0.162451      0.270877     -0.484862 
 C299  C     0.229516      0.332499     -0.481712 
 C300  C     0.315513      0.309766     -0.499218 
 C301  C     0.336740      0.224822      0.484162 
 O302  O     0.076666      0.293105     -0.473582 
 C303  C     0.047363      0.365784      0.484725 
 C304  C    -0.050596      0.381390      0.489925 
 C305  C    -0.079384      0.462488      0.448162 
 C306  C    -0.178472      0.478841      0.449511 
 O307  O     0.422502      0.203046      0.472399 
 C308  C     0.452890      0.131211     -0.485534 
 C309  C    -0.449006      0.116943     -0.491334 
 C310  C    -0.418679      0.036863     -0.448998 
 C311  C    -0.319371      0.022067     -0.450648 
 H312  H     0.214425      0.398381     -0.466966 
 H313  H     0.284953      0.097322      0.466301 
 H314  H     0.436336      0.144165     -0.430379 
 H315  H     0.418104      0.072858      0.498545 
 H316  H     0.082656      0.423567     -0.498727 
 H317  H     0.064280      0.353220      0.429573 
 H318  H    -0.430434      0.110686      0.453052 
 H319  H    -0.414750      0.173914     -0.471889 
 H320  H    -0.085441      0.325232      0.469642 
 H321  H    -0.069666      0.387103     -0.454527 
 H322  H    -0.044920     -0.481405      0.468940 
 H323  H    -0.057926      0.457302      0.393098 
 H324  H    -0.439859      0.042445     -0.393897 
 H325  H    -0.452387     -0.020025     -0.469138 
 H326  H    -0.300845     -0.037428     -0.422103 
 H327  H    -0.294817      0.017286      0.495234 
 H328  H    -0.284511      0.074962     -0.425562 
 H329  H    -0.195723     -0.460931      0.421481 
 H330  H    -0.214136      0.426903      0.423803 
 H331  H    -0.203289      0.483240     -0.496419 
 C332  C     0.298039     -0.277948     -0.440398 
 C333  C     0.313687     -0.315149      0.494318 
 C334  C     0.264750     -0.288790      0.434875 
 C335  C     0.198970     -0.226493      0.442679 
 C336  C     0.183294     -0.189300     -0.492050 
 C337  C     0.232387     -0.215477     -0.432644 
 O338  O     0.282555     -0.323347      0.370595 
 C339  C     0.224366     -0.305016      0.312681 
 C340  C     0.256466     -0.352794      0.248718 
 C341  C     0.191045     -0.351499      0.187238 
 C342  C     0.214773     -0.415679      0.130181 
 O343  O     0.214876     -0.180489     -0.368482 
 C344  C     0.274315     -0.197117     -0.311086 
 C345  C     0.243642     -0.147359     -0.247700 
 C346  C     0.310500     -0.146797     -0.187242 
 C347  C     0.288114     -0.081041     -0.131052 
 H348  H     0.160310     -0.205765      0.397040 
 H349  H     0.336639     -0.298728     -0.394739 
 H350  H     0.275694     -0.266484     -0.298048 
 H351  H     0.340673     -0.176749     -0.327140 
 H352  H     0.157742     -0.325929      0.327429 
 H353  H     0.223115     -0.235333      0.300967 
 H354  H     0.227562     -0.080824     -0.263674 
 H355  H     0.182080     -0.175795     -0.228053 
 H356  H     0.318439     -0.323768      0.230576 
 H357  H     0.272194     -0.419770      0.263557 
 H358  H     0.124599     -0.365725      0.206844 
 H359  H     0.188228     -0.286065      0.164000 
 H360  H     0.313974     -0.211589     -0.162855 
 H361  H     0.376455     -0.133046     -0.208112 
 H362  H     0.330166     -0.088737     -0.084445 
 H363  H     0.296304     -0.014838     -0.151003 
 H364  H     0.219913     -0.087716     -0.113538 
 H365  H     0.173680     -0.406868      0.083136 
 H366  H     0.283310     -0.408361      0.113717 
 H367  H     0.206392     -0.482392      0.148841 
 N368  N     0.491777      0.487313     -0.184715 
 C369  C    -0.484951      0.400726     -0.209810 
 C370  C     0.403764     -0.490118     -0.212502 
 C371  C    -0.444639     -0.450339     -0.214405 
 C372  C     0.402902     -0.492513     -0.294682 
 H373  H     0.355122      0.464868     -0.189755 
 H374  H     0.385636     -0.425433     -0.194767 
 C375  C    -0.484883      0.399436     -0.292050 
 H376  H    -0.419849      0.382403     -0.189085 
 H377  H     0.468000      0.353574     -0.187843 
 C378  C    -0.445618     -0.451450     -0.296455 
 H379  H    -0.461533     -0.385738     -0.195866 
 H380  H    -0.378554     -0.465909     -0.194084 
 H381  H    -0.419407      0.381663     -0.311614 
 H382  H     0.468922      0.350947     -0.311568 
 H383  H     0.354865      0.460108     -0.313140 
 H384  H     0.382813     -0.429571     -0.317175 
 H385  H    -0.379771     -0.467059     -0.316582 
 N386  N     0.490712      0.484819     -0.321926 
 H387  H    -0.463447     -0.387482     -0.318237 
 C388  C    -0.245105     -0.324644     -0.456702 
 C389  C    -0.315356     -0.314782      0.496305 
 C390  C    -0.323196     -0.240580      0.453251 
 C391  C    -0.257980     -0.177181      0.455936 
 C392  C    -0.187663     -0.187110     -0.497123 
 C393  C    -0.179744     -0.261384     -0.454182 
 O394  O    -0.395174     -0.232051      0.410438 
 C395  C    -0.424964     -0.146767      0.392725 
 C396  C     0.479240     -0.150984      0.370505 
 C397  C     0.437527     -0.061693      0.358844 
 C398  C     0.340913     -0.064796      0.336667 
 O399  O    -0.107592     -0.270106     -0.411582 
 C400  C    -0.078757     -0.355511     -0.393235 
 C401  C     0.017121     -0.352205     -0.371182 
 C402  C     0.057576     -0.441918     -0.358822 
 C403  C     0.154155     -0.439863     -0.336478 
 H404  H    -0.262333     -0.119986      0.421749 
 H405  H    -0.240918     -0.381763     -0.422403 
 H406  H    -0.119799     -0.381264     -0.350052 
 H407  H    -0.086714     -0.397191     -0.438878 
 H408  H    -0.417593     -0.105570      0.438725 
 H409  H    -0.384153     -0.120020      0.349793 
 H410  H     0.054962     -0.317519     -0.412214 
 H411  H     0.023564     -0.314336     -0.323154 
 H412  H     0.473400     -0.188299      0.322133 
 H413  H     0.441785     -0.186691      0.411194 
 H414  H     0.443013     -0.025411      0.407698 
 H415  H     0.475289     -0.025160      0.319009 
 H416  H     0.019191     -0.477524     -0.318824 
 H417  H     0.051706     -0.478660     -0.407413 
 H418  H     0.180005      0.494727     -0.327825 
 H419  H     0.194839     -0.408443     -0.377192 
 H420  H     0.162889     -0.404713     -0.287462 
 H421  H     0.314021      0.000315      0.328596 
 H422  H     0.332544     -0.099469      0.287377 
 H423  H     0.300818     -0.097255      0.377222 
loop_  
_geom_bond_atom_site_label_1  
_geom_bond_atom_site_label_2  
Cu0   Cu1 
Cu0   O4 
Cu0   O7 
Cu0   O10 
Cu0   O13 
Cu0   N82 
Cu1   O2 
Cu1   O5 
Cu1   O8 
Cu1   O11 
Cu1   N276 
O2   C3 
C3   O4 
C3   C29 
O5   C6 
C6   O7 
C6   C85 
O8   C9 
C9   O10 
C9   C177 
O11   C12 
C12   O13 
C12   C124 
Cu14   Cu15 
Cu14   O18 
Cu14   O21 
Cu14   O24 
Cu14   O27 
Cu14   N174 
Cu15   O16 
Cu15   O19 
Cu15   O22 
Cu15   O25 
Cu15   N368 
O16   C17 
C17   O18 
C17   C121 
O19   C20 
C20   O21 
C20   C180 
O22   C23 
C23   O24 
C23   C88 
O25   C26 
C26   O27 
C26   C32 
C28   C29 
C28   C33 
C28   H45 
C29   C30 
C30   C31 
C30   O34 
C31   C32 
C31   H44 
C32   C33 
C33   O39 
O34   C35 
C35   C36 
C35   H48 
C35   H49 
C36   C37 
C36   H52 
C36   H53 
C37   C38 
C37   H54 
C37   H55 
C38   H61 
C38   H62 
C38   H63 
O39   C40 
C40   C41 
C40   H46 
C40   H47 
C41   C42 
C41   H50 
C41   H51 
C42   C43 
C42   H56 
C42   H57 
C43   H58 
C43   H59 
C43   H60 
N64   C65 
N64   C66 
N64   C67 
N64   Cu213 
C65   C71 
C65   H72 
C65   H73 
C66   C68 
C66   H69 
C66   H70 
C67   C74 
C67   H75 
C67   H76 
C68   H79 
C68   H80 
C68   N82 
C71   H77 
C71   H78 
C71   N82 
C74   H81 
C74   N82 
C74   H83 
C84   C85 
C84   C89 
C84   H101 
C85   C86 
C86   C87 
C86   O90 
C87   C88 
C87   H100 
C88   C89 
C89   O95 
O90   C91 
C91   C92 
C91   H104 
C91   H105 
C92   C93 
C92   H108 
C92   H109 
C93   C94 
C93   H110 
C93   H111 
C94   H117 
C94   H118 
C94   H119 
O95   C96 
C96   C97 
C96   H102 
C96   H103 
C97   C98 
C97   H106 
C97   H107 
C98   C99 
C98   H112 
C98   H113 
C99   H114 
C99   H115 
C99   H116 
C120   C121 
C120   C125 
C120   H137 
C121   C122 
C122   C123 
C122   O126 
C123   C124 
C123   H136 
C124   C125 
C125   O131 
O126   C127 
C127   C128 
C127   H140 
C127   H141 
C128   C129 
C128   H144 
C128   H145 
C129   C130 
C129   H146 
C129   H147 
C130   H153 
C130   H154 
C130   H155 
O131   C132 
C132   C133 
C132   H138 
C132   H139 
C133   C134 
C133   H142 
C133   H143 
C134   C135 
C134   H148 
C134   H149 
C135   H150 
C135   H151 
C135   H152 
N156   C157 
N156   C158 
N156   C159 
N156   Cu227 
C157   C163 
C157   H164 
C157   H165 
C158   C160 
C158   H161 
C158   H162 
C159   C166 
C159   H167 
C159   H168 
C160   H171 
C160   H172 
C160   N174 
C163   H169 
C163   H170 
C163   N174 
C166   H173 
C166   N174 
C166   H175 
C176   C177 
C176   C181 
C176   H193 
C177   C178 
C178   C179 
C178   O182 
C179   C180 
C179   H192 
C180   C181 
C181   O187 
O182   C183 
C183   C184 
C183   H196 
C183   H197 
C184   C185 
C184   H200 
C184   H201 
C185   C186 
C185   H202 
C185   H203 
C186   H209 
C186   H210 
C186   H211 
O187   C188 
C188   C189 
C188   H194 
C188   H195 
C189   C190 
C189   H198 
C189   H199 
C190   C191 
C190   H204 
C190   H205 
C191   H206 
C191   H207 
C191   H208 
Cu212   Cu213 
Cu212   O216 
Cu212   O219 
Cu212   O222 
Cu212   O225 
Cu212   N294 
Cu213   O214 
Cu213   O217 
Cu213   O220 
Cu213   O223 
O214   C215 
C215   O216 
C215   C241 
O217   C218 
C218   O219 
C218   C297 
O220   C221 
C221   O222 
C221   C392 
O223   C224 
C224   O225 
C224   C336 
Cu226   Cu227 
Cu226   O230 
Cu226   O233 
Cu226   O236 
Cu226   O239 
Cu226   N386 
Cu227   O228 
Cu227   O231 
Cu227   O234 
Cu227   O237 
O228   C229 
C229   O230 
C229   C333 
O231   C232 
C232   O233 
C232   C389 
O234   C235 
C235   O236 
C235   C300 
O237   C238 
C238   O239 
C238   C244 
C240   C241 
C240   C245 
C240   H257 
C241   C242 
C242   C243 
C242   O246 
C243   C244 
C243   H256 
C244   C245 
C245   O251 
O246   C247 
C247   C248 
C247   H260 
C247   H261 
C248   C249 
C248   H264 
C248   H265 
C249   C250 
C249   H266 
C249   H267 
C250   H273 
C250   H274 
C250   H275 
O251   C252 
C252   C253 
C252   H258 
C252   H259 
C253   C254 
C253   H262 
C253   H263 
C254   C255 
C254   H268 
C254   H269 
C255   H270 
C255   H271 
C255   H272 
N276   C277 
N276   C278 
N276   C279 
C277   C283 
C277   H284 
C277   H285 
C278   C280 
C278   H281 
C278   H282 
C279   C286 
C279   H287 
C279   H288 
C280   H291 
C280   H292 
C280   N294 
C283   H289 
C283   H290 
C283   N294 
C286   H293 
C286   N294 
C286   H295 
C296   C297 
C296   C301 
C296   H313 
C297   C298 
C298   C299 
C298   O302 
C299   C300 
C299   H312 
C300   C301 
C301   O307 
O302   C303 
C303   C304 
C303   H316 
C303   H317 
C304   C305 
C304   H320 
C304   H321 
C305   C306 
C305   H322 
C305   H323 
C306   H329 
C306   H330 
C306   H331 
O307   C308 
C308   C309 
C308   H314 
C308   H315 
C309   C310 
C309   H318 
C309   H319 
C310   C311 
C310   H324 
C310   H325 
C311   H326 
C311   H327 
C311   H328 
C332   C333 
C332   C337 
C332   H349 
C333   C334 
C334   C335 
C334   O338 
C335   C336 
C335   H348 
C336   C337 
C337   O343 
O338   C339 
C339   C340 
C339   H352 
C339   H353 
C340   C341 
C340   H356 
C340   H357 
C341   C342 
C341   H358 
C341   H359 
C342   H365 
C342   H366 
C342   H367 
O343   C344 
C344   C345 
C344   H350 
C344   H351 
C345   C346 
C345   H354 
C345   H355 
C346   C347 
C346   H360 
C346   H361 
C347   H362 
C347   H363 
C347   H364 
N368   C369 
N368   C370 
N368   C371 
C369   C375 
C369   H376 
C369   H377 
C370   C372 
C370   H373 
C370   H374 
C371   C378 
C371   H379 
C371   H380 
C372   H383 
C372   H384 
C372   N386 
C375   H381 
C375   H382 
C375   N386 
C378   H385 
C378   N386 
C378   H387 
C388   C389 
C388   C393 
C388   H405 
C389   C390 
C390   C391 
C390   O394 
C391   C392 
C391   H404 
C392   C393 
C393   O399 
O394   C395 
C395   C396 
C395   H408 
C395   H409 
C396   C397 
C396   H412 
C396   H413 
C397   C398 
C397   H414 
C397   H415 
C398   H421 
C398   H422 
C398   H423 
O399   C400 
C400   C401 
C400   H406 
C400   H407 
C401   C402 
C401   H410 
C401   H411 
C402   C403 
C402   H416 
C402   H417 
C403   H418 
C403   H419 
C403   H420 
  
#END  
