data_
_symmetry_cell_setting           triclinic 
_symmetry_space_group_name_H-M   'P 1' 
_symmetry_Int_Tables_number      1 
loop_ 
_symmetry_equiv_pos_site_id 
_symmetry_equiv_pos_as_xyz 
1 x,y,z 
_cell_length_a             15.559399        
_cell_length_b             15.252451        
_cell_length_c             19.036752        
_cell_angle_alpha          91.465867        
_cell_angle_beta           94.869664        
_cell_angle_gamma          89.925141        
loop_  
_atom_site_label   
_atom_site_type_symbol  
_atom_site_fract_x  
_atom_site_fract_y  
_atom_site_fract_z 
 Cu0  Cu     0.007023      0.005634      0.071513 
 Cu1  Cu    -0.005485     -0.000566     -0.065454 
 O2  O    -0.074280      0.108216     -0.059385 
 C3  C    -0.106599      0.130038     -0.002298 
 O4  O    -0.086661      0.095506      0.057218 
 O5  O     0.102268      0.071716     -0.050775 
 C6  C     0.124083      0.114161      0.006529 
 O7  O     0.094030      0.099908      0.065410 
 O8  O    -0.111710     -0.071906     -0.058997 
 C9  C    -0.125641     -0.104624     -0.000114 
 O10  O    -0.082309     -0.088010      0.058508 
 O11  O     0.064029     -0.108339     -0.053569 
 C12  C     0.106777     -0.125196      0.004471 
 O13  O     0.097791     -0.086393      0.063589 
 Cu14  Cu    -0.495648     -0.494096      0.060739 
 Cu15  Cu     0.494186     -0.496161     -0.076224 
 O16  O     0.394551     -0.414004     -0.066967 
 C17  C     0.384181     -0.376191     -0.007706 
 O18  O     0.427531     -0.391659      0.050299 
 O19  O    -0.426591     -0.392939     -0.060250 
 C20  C    -0.384463     -0.376585     -0.000994 
 O21  O    -0.395035     -0.414836      0.056341 
 O22  O     0.414323      0.401788     -0.073174 
 C23  C     0.380974      0.387306     -0.015657 
 O24  O     0.401600      0.427867      0.042707 
 O25  O    -0.403671      0.423240     -0.061869 
 C26  C    -0.382797      0.387345     -0.002997 
 O27  O    -0.418681      0.403260      0.053543 
 C28  C    -0.278418      0.296825     -0.065457 
 C29  C    -0.309225      0.322641     -0.001010 
 C30  C    -0.271450      0.288956      0.062556 
 C31  C    -0.205157      0.226746      0.060211 
 C32  C    -0.175465      0.199811     -0.004243 
 C33  C    -0.211179      0.235586     -0.067575 
 O34  O    -0.300796      0.317451      0.125153 
 C35  C    -0.252249      0.301395      0.191251 
 C36  C    -0.172692      0.360308      0.200446 
 C37  C    -0.112299      0.341953      0.266511 
 C38  C    -0.154829      0.352045      0.336046 
 O39  O    -0.178601      0.208081     -0.129045 
 C40  C    -0.211844      0.238637     -0.196643 
 C41  C    -0.293484      0.188753     -0.223361 
 C42  C    -0.320319      0.204956     -0.301444 
 C43  C    -0.406930      0.163621     -0.328327 
 H44  H    -0.176451      0.198769      0.108907 
 H45  H    -0.307257      0.323882     -0.114409 
 H46  H    -0.222215      0.310059     -0.194483 
 H47  H    -0.161063      0.226639     -0.232616 
 H48  H    -0.295232      0.316882      0.232859 
 H49  H    -0.235992      0.231408      0.195768 
 H50  H    -0.282767      0.117938     -0.216547 
 H51  H    -0.346901      0.206729     -0.191394 
 H52  H    -0.135340      0.353219      0.154055 
 H53  H    -0.193424      0.429348      0.202238 
 H54  H    -0.086149      0.275166      0.261818 
 H55  H    -0.056513      0.386529      0.267846 
 H56  H    -0.323007      0.275978     -0.310003 
 H57  H    -0.269910      0.179022     -0.333517 
 H58  H    -0.405590      0.092054     -0.323323 
 H59  H    -0.459394      0.189575     -0.298790 
 H60  H    -0.423096      0.177640     -0.384287 
 H61  H    -0.108698      0.339222      0.381610 
 H62  H    -0.180760      0.418285      0.343558 
 H63  H    -0.208448      0.305826      0.337834 
 N64  N     0.012070     -0.002001      0.322693 
 C65  C    -0.027638     -0.083160      0.290484 
 C66  C    -0.037225      0.073950      0.293950 
 C67  C     0.101058      0.003822      0.301018 
 C68  C    -0.035446      0.076103      0.212097 
 H69  H    -0.104285      0.069432      0.308264 
 H70  H    -0.009830      0.134809      0.319093 
 C71  C    -0.031267     -0.080843      0.208340 
 H72  H     0.010582     -0.139759      0.310115 
 H73  H    -0.093047     -0.090891      0.307702 
 C74  C     0.100719      0.000827      0.218826 
 H75  H     0.130573      0.065441      0.322817 
 H76  H     0.140076     -0.050082      0.324546 
 H77  H    -0.000040     -0.139285      0.186550 
 H78  H    -0.098970     -0.081525      0.185843 
 H79  H    -0.101822      0.076456      0.186675 
 H80  H    -0.003918      0.136346      0.196312 
 H81  H     0.134764     -0.058065      0.200973 
 N82  N     0.011259     -0.000864      0.185551 
 H83  H     0.135069      0.057823      0.200252 
 C84  C     0.272466      0.311772      0.049638 
 C85  C     0.312035      0.318039     -0.013589 
 C86  C     0.288567      0.259785     -0.070429 
 C87  C     0.227349      0.193992     -0.061847 
 C88  C     0.189137      0.186739      0.001870 
 C89  C     0.211115      0.246299      0.058042 
 O90  O     0.326460      0.268321     -0.132438 
 C91  C     0.303137      0.208043     -0.190016 
 C92  C     0.353909      0.230787     -0.251937 
 C93  C     0.335867      0.169479     -0.316908 
 C94  C     0.365763      0.074630     -0.305534 
 O95  O     0.171650      0.238474      0.119287 
 C96  C     0.190024      0.300392      0.176553 
 C97  C     0.139912      0.271470      0.237074 
 C98  C     0.155423      0.328726      0.304447 
 C99  C     0.107584      0.294713      0.365402 
 H100  H     0.209563      0.147648     -0.105213 
 H101  H     0.289649      0.357899      0.093222 
 H102  H     0.259724      0.301285      0.192454 
 H103  H     0.170256      0.366488      0.159620 
 H104  H     0.318051      0.140940     -0.172803 
 H105  H     0.233311      0.212743     -0.205032 
 H106  H     0.070540      0.271009      0.219772 
 H107  H     0.157519      0.203314      0.249502 
 H108  H     0.338759      0.298613     -0.267249 
 H109  H     0.423317      0.229561     -0.234954 
 H110  H     0.266242      0.169830     -0.333146 
 H111  H     0.367527      0.196259     -0.361353 
 H112  H     0.225076      0.331559      0.320724 
 H113  H     0.135098      0.396498      0.293355 
 H114  H     0.037514      0.293557      0.352455 
 H115  H     0.127781      0.227643      0.378529 
 H116  H     0.120472      0.335981      0.413182 
 H117  H     0.350869      0.033919     -0.353498 
 H118  H     0.435652      0.071067     -0.291769 
 H119  H     0.333829      0.044680     -0.262870 
 C120  C     0.249669     -0.182787      0.049461 
 C121  C     0.175960     -0.193638      0.002478 
 C122  C     0.169934     -0.263280     -0.047706 
 C123  C     0.240326     -0.320312     -0.052210 
 C124  C     0.314181     -0.308827     -0.005641 
 C125  C     0.320147     -0.238706      0.043932 
 O126  O     0.095043     -0.272877     -0.090719 
 C127  C     0.082113     -0.350768     -0.134199 
 C128  C    -0.008209     -0.349295     -0.171902 
 C129  C    -0.081017     -0.344322     -0.122184 
 C130  C    -0.171398     -0.347034     -0.161157 
 O131  O     0.391615     -0.223440      0.089378 
 C132  C     0.463358     -0.185183      0.058443 
 C133  C    -0.461821     -0.171178      0.114585 
 C134  C    -0.483264     -0.111037      0.176828 
 C135  C    -0.407320     -0.097926      0.232963 
 H136  H     0.237054     -0.375234     -0.090337 
 H137  H     0.255367     -0.128791      0.088341 
 H138  H     0.483017     -0.228563      0.015499 
 H139  H     0.442597     -0.122406      0.035169 
 H140  H     0.130796     -0.353191     -0.173004 
 H141  H     0.090481     -0.408914     -0.101071 
 H142  H    -0.439880     -0.235352      0.134340 
 H143  H    -0.406846     -0.143430      0.089750 
 H144  H    -0.013783     -0.293587     -0.207655 
 H145  H    -0.017144     -0.408767     -0.205723 
 H146  H    -0.074137     -0.398988     -0.085530 
 H147  H    -0.074002     -0.283768     -0.089345 
 H148  H     0.495315     -0.046825      0.156731 
 H149  H     0.461617     -0.138505      0.201605 
 H150  H    -0.351534     -0.068666      0.210543 
 H151  H    -0.425177     -0.054308      0.276234 
 H152  H    -0.386531     -0.160591      0.256059 
 H153  H    -0.221458     -0.344900     -0.123764 
 H154  H    -0.181856     -0.290763     -0.195730 
 H155  H    -0.181353     -0.407271     -0.193753 
 N156  N     0.494910     -0.497594      0.309970 
 C157  C     0.482707     -0.406553      0.285678 
 C158  C    -0.422434      0.468914      0.286985 
 C159  C     0.424438      0.447936      0.275205 
 C160  C    -0.422681      0.470463      0.205203 
 H161  H    -0.369241     -0.491041      0.312578 
 H162  H    -0.411996      0.401389      0.305106 
 C163  C     0.485736     -0.403073      0.204136 
 H164  H     0.420320     -0.381825      0.301265 
 H165  H    -0.467311     -0.363701      0.312674 
 C166  C     0.423713      0.452931      0.193370 
 H167  H     0.433468      0.379677      0.291920 
 H168  H     0.362488      0.470136      0.293450 
 H169  H     0.426341     -0.373100      0.179773 
 H170  H    -0.459934     -0.362228      0.190701 
 H171  H    -0.367584     -0.491438      0.189387 
 H172  H    -0.416263      0.403177      0.183970 
 H173  H     0.362400      0.480876      0.170662 
 N174  N     0.495822     -0.492138      0.173577 
 H175  H     0.429323      0.386615      0.169749 
 C176  C    -0.332874     -0.235401     -0.044865 
 C177  C    -0.317421     -0.305851      0.000322 
 C178  C    -0.241880     -0.308429      0.046205 
 C179  C    -0.183475     -0.238678      0.048214 
 C180  C    -0.198034     -0.169027      0.002030 
 C181  C    -0.275001     -0.164920     -0.042549 
 O182  O    -0.222682     -0.376119      0.090531 
 C183  C    -0.205059     -0.459074      0.057080 
 C184  C    -0.107705     -0.472268      0.060120 
 C185  C    -0.080951      0.445350      0.019105 
 C186  C     0.016833      0.430213      0.024250 
 O187  O    -0.299150     -0.097967     -0.086719 
 C188  C    -0.286163     -0.008868     -0.061293 
 C189  C    -0.368138      0.044022     -0.078305 
 C190  C    -0.446465      0.013015     -0.041540 
 C191  C     0.473596      0.070692     -0.056834 
 H192  H    -0.124496     -0.242870      0.083336 
 H193  H    -0.391483     -0.232285     -0.080527 
 H194  H    -0.267678     -0.006128     -0.004088 
 H195  H    -0.232934      0.019256     -0.087993 
 H196  H    -0.236475      0.489393      0.085281 
 H197  H    -0.233414     -0.461869      0.002004 
 H198  H    -0.354963      0.113158     -0.063019 
 H199  H    -0.384479      0.042863     -0.135751 
 H200  H    -0.077416     -0.414326      0.039141 
 H201  H    -0.081775     -0.476095      0.115640 
 H202  H    -0.112729      0.387493      0.038591 
 H203  H    -0.105200      0.450158     -0.036721 
 H204  H    -0.461949     -0.055214     -0.058235 
 H205  H    -0.429441      0.012248      0.015793 
 H206  H     0.486314      0.139160     -0.039544 
 H207  H     0.453076      0.070501     -0.113520 
 H208  H     0.418995      0.047563     -0.029237 
 H209  H     0.050930      0.485627      0.003353 
 H210  H     0.042594      0.421791      0.079211 
 H211  H     0.033093      0.370791     -0.005785 
 Cu212  Cu     0.008705     -0.000734     -0.426814 
 Cu213  Cu    -0.001070     -0.005748      0.436058 
 O214  O    -0.075976      0.099562      0.445191 
 C215  C    -0.104232      0.123082     -0.496278 
 O216  O    -0.079567      0.092448     -0.436442 
 O217  O     0.104288      0.068422      0.449809 
 C218  C     0.129591      0.104874     -0.491143 
 O219  O     0.098069      0.091742     -0.432781 
 O220  O    -0.104364     -0.081877      0.442422 
 C221  C    -0.122459     -0.112207     -0.498730 
 O222  O    -0.084051     -0.090659     -0.439088 
 O223  O     0.073879     -0.110511      0.446683 
 C224  C     0.112719     -0.129267     -0.493937 
 O225  O     0.098035     -0.093581     -0.434953 
 Cu226  Cu    -0.491564      0.498185     -0.440985 
 Cu227  Cu     0.493427      0.489230      0.421916 
 O228  O     0.401195     -0.421299      0.429123 
 C229  C     0.386326     -0.385364      0.487907 
 O230  O     0.425456     -0.403214     -0.452628 
 O231  O    -0.417373     -0.415848      0.429815 
 C232  C    -0.380593     -0.388546      0.488568 
 O233  O    -0.396308     -0.417147     -0.451440 
 O234  O     0.407889      0.393577      0.432672 
 C235  C     0.382794      0.377358      0.492950 
 O236  O     0.409948      0.415070     -0.448956 
 O237  O    -0.414369      0.399925      0.431363 
 C238  C    -0.384866      0.372666      0.491216 
 O239  O    -0.409328      0.398826     -0.449488 
 C240  C    -0.254036      0.308499     -0.447355 
 C241  C    -0.313334      0.306515      0.493038 
 C242  C    -0.304287      0.245736      0.437266 
 C243  C    -0.233362      0.188474      0.441443 
 C244  C    -0.174113      0.190793     -0.499029 
 C245  C    -0.183252      0.251851     -0.443582 
 O246  O    -0.364791      0.243873      0.380343 
 C247  C    -0.364413      0.171665      0.330340 
 C248  C    -0.439498      0.180210      0.274187 
 C249  C     0.471992      0.183987      0.304116 
 C250  C     0.396204      0.180142      0.247145 
 O251  O    -0.129400      0.257630     -0.383089 
 C252  C    -0.043892      0.289665     -0.389635 
 C253  C     0.000131      0.305084     -0.315709 
 C254  C    -0.041413      0.377632     -0.272326 
 C255  C    -0.001728      0.385306     -0.195804 
 H256  H    -0.225035      0.140035      0.399284 
 H257  H    -0.260292      0.355582     -0.403931 
 H258  H    -0.008013      0.241129     -0.419376 
 H259  H    -0.047379      0.350679     -0.419552 
 H260  H    -0.303119      0.171190      0.305351 
 H261  H    -0.369405      0.109787      0.358448 
 H262  H    -0.000233      0.243376     -0.286995 
 H263  H     0.068508      0.321373     -0.319481 
 H264  H    -0.431045      0.239328      0.243450 
 H265  H    -0.438162      0.124210      0.236567 
 H266  H     0.466586      0.129523      0.340230 
 H267  H     0.467913      0.244455      0.336544 
 H268  H    -0.035269      0.440823     -0.298155 
 H269  H    -0.111124      0.365384     -0.272643 
 H270  H    -0.033397      0.437090     -0.166184 
 H271  H    -0.008563      0.323743     -0.167930 
 H272  H     0.067412      0.401054     -0.193346 
 H273  H     0.399017      0.234205      0.210369 
 H274  H     0.396155      0.118393      0.216059 
 H275  H     0.334290      0.184435      0.270873 
 N276  N    -0.003472     -0.009802     -0.178665 
 C277  C    -0.085497      0.025130     -0.211481 
 C278  C     0.068146      0.044836     -0.199790 
 C279  C     0.007536     -0.099896     -0.206842 
 C280  C     0.069965      0.043470     -0.281555 
 H281  H     0.060120      0.112616     -0.179742 
 H282  H     0.129680      0.020202     -0.174752 
 C283  C    -0.083868      0.027279     -0.293161 
 H284  H    -0.139329     -0.015616     -0.196741 
 H285  H    -0.095533      0.091653     -0.190069 
 C286  C     0.006812     -0.100219     -0.288918 
 H287  H     0.068864     -0.126686     -0.183280 
 H288  H    -0.044431     -0.141637     -0.190087 
 H289  H    -0.138731     -0.009407     -0.319944 
 H290  H    -0.090173      0.095451     -0.310712 
 H291  H     0.065364      0.110692     -0.301436 
 H292  H     0.131399      0.016214     -0.297161 
 H293  H    -0.046789     -0.140684     -0.313299 
 N294  N    -0.002144     -0.009871     -0.315242 
 H295  H     0.066495     -0.129571     -0.306205 
 C296  C     0.192162      0.248675     -0.451904 
 C297  C     0.201365      0.170193     -0.490318 
 C298  C     0.270550      0.158224      0.467362 
 C299  C     0.326184      0.228555      0.459087 
 C300  C     0.315626      0.307809      0.496175 
 C301  C     0.246836      0.319305     -0.461121 
 O302  O     0.284847      0.082201      0.430237 
 C303  C     0.291642      0.002153      0.468951 
 C304  C     0.386327     -0.021216      0.486130 
 C305  C     0.435439     -0.047050      0.421843 
 C306  C     0.408240     -0.135678      0.386904 
 O307  O     0.230154      0.396432     -0.426573 
 C308  C     0.206667      0.468619     -0.471435 
 C309  C     0.179831     -0.452397     -0.428015 
 C310  C     0.099439     -0.466767     -0.388199 
 C311  C     0.068741     -0.382351     -0.352608 
 H312  H     0.379621      0.218771      0.426200 
 H313  H     0.139146      0.258672     -0.418698 
 H314  H     0.261363      0.486190      0.498661 
 H315  H     0.153299      0.448063      0.489992 
 H316  H     0.259445      0.008143     -0.481829 
 H317  H     0.257432     -0.049402      0.436179 
 H318  H     0.234129     -0.431618     -0.390429 
 H319  H     0.167025     -0.397483     -0.463829 
 H320  H     0.419196      0.034905     -0.485597 
 H321  H     0.390625     -0.075518     -0.476657 
 H322  H     0.427049      0.004531      0.382534 
 H323  H    -0.495028     -0.048899      0.438431 
 H324  H     0.046946     -0.493135     -0.425174 
 H325  H     0.113267      0.482948     -0.348318 
 H326  H     0.118333     -0.355802     -0.313248 
 H327  H     0.053409     -0.331163     -0.391377 
 H328  H     0.010135     -0.394153     -0.325896 
 H329  H     0.339844     -0.136244      0.367045 
 H330  H     0.446070     -0.151119      0.341986 
 H331  H     0.418584     -0.189282      0.424192 
 C332  C     0.309702     -0.272228     -0.446135 
 C333  C     0.316079     -0.317739      0.489655 
 C334  C     0.256036     -0.303021      0.431687 
 C335  C     0.189935     -0.241685      0.439307 
 C336  C     0.182902     -0.197025     -0.496166 
 C337  C     0.241786     -0.213358     -0.437810 
 O338  O     0.262995     -0.349280      0.369590 
 C339  C     0.194643     -0.343939      0.314195 
 C340  C     0.213434     -0.407523      0.254504 
 C341  C     0.140233     -0.415859      0.195039 
 C342  C     0.119506     -0.330467      0.156219 
 O343  O     0.231855     -0.171071     -0.374565 
 C344  C     0.291426     -0.188212     -0.314699 
 C345  C     0.260341     -0.139059     -0.251191 
 C346  C     0.323629     -0.141999     -0.184836 
 C347  C     0.294325     -0.085723     -0.123433 
 H348  H     0.143874     -0.228316      0.394395 
 H349  H     0.357088     -0.283967     -0.401766 
 H350  H     0.294070     -0.259181     -0.305163 
 H351  H     0.356175     -0.165658     -0.325522 
 H352  H     0.133128     -0.360900      0.335183 
 H353  H     0.190694     -0.276221      0.295365 
 H354  H     0.247756     -0.070333     -0.264845 
 H355  H     0.198076     -0.166713     -0.239176 
 H356  H     0.273036     -0.387269      0.232024 
 H357  H     0.226331     -0.472772      0.276504 
 H358  H     0.158189     -0.466358      0.156563 
 H359  H     0.081619     -0.440403      0.216643 
 H360  H     0.331731     -0.210427     -0.168292 
 H361  H     0.387646     -0.119552     -0.197408 
 H362  H     0.230028     -0.105448     -0.109893 
 H363  H     0.338954     -0.092000     -0.075917 
 H364  H     0.290963     -0.015936     -0.136303 
 H365  H     0.176679     -0.305303      0.133146 
 H366  H     0.068918     -0.340830      0.112867 
 H367  H     0.096726     -0.278905      0.191443 
 N368  N     0.496445      0.499981     -0.190372 
 C369  C     0.407947     -0.490064     -0.224155 
 C370  C    -0.450165     -0.427658     -0.213542 
 C371  C    -0.467715      0.416255     -0.215917 
 C372  C    -0.447539     -0.430978     -0.295495 
 H373  H    -0.477220     -0.364738     -0.195940 
 H374  H    -0.384420     -0.432363     -0.187222 
 C375  C     0.408865     -0.489640     -0.306139 
 H376  H     0.367638      0.455781     -0.208030 
 H377  H     0.379643     -0.428748     -0.204575 
 C378  C    -0.469501      0.413459     -0.298122 
 H379  H    -0.400837      0.409689     -0.192525 
 H380  H     0.495572      0.361159     -0.196924 
 H381  H     0.366253      0.458538     -0.330813 
 H382  H     0.383921     -0.426838     -0.326776 
 H383  H    -0.469647     -0.368396     -0.318500 
 H384  H    -0.380857     -0.441193     -0.309589 
 H385  H     0.489416      0.359294     -0.321025 
 N386  N     0.497477      0.496989     -0.327454 
 H387  H    -0.404203      0.401648     -0.314635 
 C388  C    -0.287725     -0.277625     -0.445252 
 C389  C    -0.314868     -0.315860      0.488883 
 C390  C    -0.281549     -0.285863      0.427185 
 C391  C    -0.222445     -0.215997      0.432996 
 C392  C    -0.193303     -0.179822      0.499053 
 C393  C    -0.227724     -0.208715     -0.439616 
 O394  O    -0.308658     -0.324995      0.363280 
 C395  C    -0.262863     -0.315663      0.300962 
 C396  C    -0.196781     -0.389009      0.294125 
 C397  C    -0.120156     -0.390383      0.350923 
 C398  C    -0.054303     -0.316523      0.345889 
 O399  O    -0.200242     -0.169904     -0.375871 
 C400  C    -0.253106     -0.171914     -0.317560 
 C401  C    -0.332778     -0.114675     -0.332525 
 C402  C    -0.385557     -0.099574     -0.268572 
 C403  C    -0.423619     -0.183354     -0.240853 
 H404  H    -0.197776     -0.189934      0.385872 
 H405  H    -0.313535     -0.301569     -0.397786 
 H406  H    -0.269664     -0.239867     -0.306066 
 H407  H    -0.213611     -0.146065     -0.270892 
 H408  H    -0.312032     -0.320182      0.255853 
 H409  H    -0.233139     -0.250683      0.298323 
 H410  H    -0.312221     -0.050490     -0.350562 
 H411  H    -0.374866     -0.143444     -0.376604 
 H412  H    -0.230851     -0.452176      0.294038 
 H413  H    -0.171488     -0.385792      0.241918 
 H414  H    -0.144266     -0.388823      0.403675 
 H415  H    -0.086608     -0.453644      0.346602 
 H416  H    -0.344585     -0.066472     -0.225940 
 H417  H    -0.438365     -0.053587     -0.282975 
 H418  H    -0.466831     -0.216514     -0.281803 
 H419  H    -0.372896     -0.229833     -0.222863 
 H420  H    -0.461193     -0.168226     -0.195722 
 H421  H    -0.001570     -0.321212      0.387861 
 H422  H    -0.025850     -0.319432      0.294981 
 H423  H    -0.083453     -0.251537      0.351641 
loop_  
_geom_bond_atom_site_label_1  
_geom_bond_atom_site_label_2  
Cu0   Cu1 
Cu0   O4 
Cu0   O7 
Cu0   O10 
Cu0   O13 
Cu0   N82 
Cu1   O2 
Cu1   O5 
Cu1   O8 
Cu1   O11 
Cu1   N276 
O2   C3 
C3   O4 
C3   C32 
O5   C6 
C6   O7 
C6   C88 
O8   C9 
C9   O10 
C9   C180 
O11   C12 
C12   O13 
C12   C121 
Cu14   Cu15 
Cu14   O18 
Cu14   O21 
Cu14   O24 
Cu14   O27 
Cu14   N174 
Cu15   O16 
Cu15   O19 
Cu15   O22 
Cu15   O25 
Cu15   N368 
O16   C17 
C17   O18 
C17   C124 
O19   C20 
C20   O21 
C20   C177 
O22   C23 
C23   O24 
C23   C85 
O25   C26 
C26   O27 
C26   C29 
C28   C29 
C28   C33 
C28   H45 
C29   C30 
C30   C31 
C30   O34 
C31   C32 
C31   H44 
C32   C33 
C33   O39 
O34   C35 
C35   C36 
C35   H48 
C35   H49 
C36   C37 
C36   H52 
C36   H53 
C37   C38 
C37   H54 
C37   H55 
C38   H61 
C38   H62 
C38   H63 
O39   C40 
C40   C41 
C40   H46 
C40   H47 
C41   C42 
C41   H50 
C41   H51 
C42   C43 
C42   H56 
C42   H57 
C43   H58 
C43   H59 
C43   H60 
N64   C65 
N64   C66 
N64   C67 
N64   Cu213 
C65   C71 
C65   H72 
C65   H73 
C66   C68 
C66   H69 
C66   H70 
C67   C74 
C67   H75 
C67   H76 
C68   H79 
C68   H80 
C68   N82 
C71   H77 
C71   H78 
C71   N82 
C74   H81 
C74   N82 
C74   H83 
C84   C85 
C84   C89 
C84   H101 
C85   C86 
C86   C87 
C86   O90 
C87   C88 
C87   H100 
C88   C89 
C89   O95 
O90   C91 
C91   C92 
C91   H104 
C91   H105 
C92   C93 
C92   H108 
C92   H109 
C93   C94 
C93   H110 
C93   H111 
C94   H117 
C94   H118 
C94   H119 
O95   C96 
C96   C97 
C96   H102 
C96   H103 
C97   C98 
C97   H106 
C97   H107 
C98   C99 
C98   H112 
C98   H113 
C99   H114 
C99   H115 
C99   H116 
C120   C121 
C120   C125 
C120   H137 
C121   C122 
C122   C123 
C122   O126 
C123   C124 
C123   H136 
C124   C125 
C125   O131 
O126   C127 
C127   C128 
C127   H140 
C127   H141 
C128   C129 
C128   H144 
C128   H145 
C129   C130 
C129   H146 
C129   H147 
C130   H153 
C130   H154 
C130   H155 
O131   C132 
C132   C133 
C132   H138 
C132   H139 
C133   C134 
C133   H142 
C133   H143 
C134   C135 
C134   H148 
C134   H149 
C135   H150 
C135   H151 
C135   H152 
N156   C157 
N156   C158 
N156   C159 
N156   Cu227 
C157   C163 
C157   H164 
C157   H165 
C158   C160 
C158   H161 
C158   H162 
C159   C166 
C159   H167 
C159   H168 
C160   H171 
C160   H172 
C160   N174 
C163   H169 
C163   H170 
C163   N174 
C166   H173 
C166   N174 
C166   H175 
C176   C177 
C176   C181 
C176   H193 
C177   C178 
C178   C179 
C178   O182 
C179   C180 
C179   H192 
C180   C181 
C181   O187 
O182   C183 
C183   C184 
C183   H196 
C183   H197 
C184   C185 
C184   H200 
C184   H201 
C185   C186 
C185   H202 
C185   H203 
C186   H209 
C186   H210 
C186   H211 
O187   C188 
C188   C189 
C188   H194 
C188   H195 
C189   C190 
C189   H198 
C189   H199 
C190   C191 
C190   H204 
C190   H205 
C191   H206 
C191   H207 
C191   H208 
Cu212   Cu213 
Cu212   O216 
Cu212   O219 
Cu212   O222 
Cu212   O225 
Cu212   N294 
Cu213   O214 
Cu213   O217 
Cu213   O220 
Cu213   O223 
O214   C215 
C215   O216 
C215   C244 
O217   C218 
C218   O219 
C218   C297 
O220   C221 
C221   O222 
C221   C392 
O223   C224 
C224   O225 
C224   C336 
Cu226   Cu227 
Cu226   O230 
Cu226   O233 
Cu226   O236 
Cu226   O239 
Cu226   N386 
Cu227   O228 
Cu227   O231 
Cu227   O234 
Cu227   O237 
O228   C229 
C229   O230 
C229   C333 
O231   C232 
C232   O233 
C232   C389 
O234   C235 
C235   O236 
C235   C300 
O237   C238 
C238   O239 
C238   C241 
C240   C241 
C240   C245 
C240   H257 
C241   C242 
C242   C243 
C242   O246 
C243   C244 
C243   H256 
C244   C245 
C245   O251 
O246   C247 
C247   C248 
C247   H260 
C247   H261 
C248   C249 
C248   H264 
C248   H265 
C249   C250 
C249   H266 
C249   H267 
C250   H273 
C250   H274 
C250   H275 
O251   C252 
C252   C253 
C252   H258 
C252   H259 
C253   C254 
C253   H262 
C253   H263 
C254   C255 
C254   H268 
C254   H269 
C255   H270 
C255   H271 
C255   H272 
N276   C277 
N276   C278 
N276   C279 
C277   C283 
C277   H284 
C277   H285 
C278   C280 
C278   H281 
C278   H282 
C279   C286 
C279   H287 
C279   H288 
C280   H291 
C280   H292 
C280   N294 
C283   H289 
C283   H290 
C283   N294 
C286   H293 
C286   N294 
C286   H295 
C296   C297 
C296   C301 
C296   H313 
C297   C298 
C298   C299 
C298   O302 
C299   C300 
C299   H312 
C300   C301 
C301   O307 
O302   C303 
C303   C304 
C303   H316 
C303   H317 
C304   C305 
C304   H320 
C304   H321 
C305   C306 
C305   H322 
C305   H323 
C306   H329 
C306   H330 
C306   H331 
O307   C308 
C308   C309 
C308   H314 
C308   H315 
C309   C310 
C309   H318 
C309   H319 
C310   C311 
C310   H324 
C310   H325 
C311   H326 
C311   H327 
C311   H328 
C332   C333 
C332   C337 
C332   H349 
C333   C334 
C334   C335 
C334   O338 
C335   C336 
C335   H348 
C336   C337 
C337   O343 
O338   C339 
C339   C340 
C339   H352 
C339   H353 
C340   C341 
C340   H356 
C340   H357 
C341   C342 
C341   H358 
C341   H359 
C342   H365 
C342   H366 
C342   H367 
O343   C344 
C344   C345 
C344   H350 
C344   H351 
C345   C346 
C345   H354 
C345   H355 
C346   C347 
C346   H360 
C346   H361 
C347   H362 
C347   H363 
C347   H364 
N368   C369 
N368   C370 
N368   C371 
C369   C375 
C369   H376 
C369   H377 
C370   C372 
C370   H373 
C370   H374 
C371   C378 
C371   H379 
C371   H380 
C372   H383 
C372   H384 
C372   N386 
C375   H381 
C375   H382 
C375   N386 
C378   H385 
C378   N386 
C378   H387 
C388   C389 
C388   C393 
C388   H405 
C389   C390 
C390   C391 
C390   O394 
C391   C392 
C391   H404 
C392   C393 
C393   O399 
O394   C395 
C395   C396 
C395   H408 
C395   H409 
C396   C397 
C396   H412 
C396   H413 
C397   C398 
C397   H414 
C397   H415 
C398   H421 
C398   H422 
C398   H423 
O399   C400 
C400   C401 
C400   H406 
C400   H407 
C401   C402 
C401   H410 
C401   H411 
C402   C403 
C402   H416 
C402   H417 
C403   H418 
C403   H419 
C403   H420 
  
#END  
