data_
_symmetry_cell_setting           triclinic 
_symmetry_space_group_name_H-M   'P 1' 
_symmetry_Int_Tables_number      1 
loop_ 
_symmetry_equiv_pos_site_id 
_symmetry_equiv_pos_as_xyz 
1 x,y,z 
_cell_length_a             10.658864        
_cell_length_b             18.512179        
_cell_length_c             19.010826        
_cell_angle_alpha          91.362537        
_cell_angle_beta           90.234101        
_cell_angle_gamma          89.573838        
loop_  
_atom_site_label   
_atom_site_type_symbol  
_atom_site_fract_x  
_atom_site_fract_y  
_atom_site_fract_z 
 Cu0  Cu    -0.000579     -0.001273      0.069103 
 Cu1  Cu    -0.009760     -0.003458     -0.067723 
 O2  O    -0.150599      0.067201     -0.054677 
 C3  C    -0.159293      0.102406      0.003493 
 O4  O    -0.120219      0.080409      0.062581 
 O5  O     0.104173      0.079248     -0.059475 
 C6  C     0.145660      0.102362     -0.000396 
 O7  O     0.135594      0.070290      0.057838 
 O8  O    -0.123850     -0.085668     -0.058380 
 C9  C    -0.156463     -0.107175      0.001945 
 O10  O    -0.137719     -0.073095      0.059879 
 O11  O     0.133118     -0.073752     -0.058611 
 C12  C     0.148745     -0.106883     -0.001170 
 O13  O     0.116102     -0.083540      0.059612 
 Cu14  Cu     0.490030     -0.499882      0.067770 
 Cu15  Cu     0.494707      0.494673     -0.069079 
 O16  O     0.376588     -0.423611     -0.064424 
 C17  C     0.335090     -0.399775     -0.005662 
 O18  O     0.344855     -0.431716      0.052894 
 O19  O    -0.370379     -0.432341     -0.057597 
 C20  C    -0.363664     -0.395151     -0.000654 
 O21  O    -0.401374     -0.415452      0.059048 
 O22  O     0.357779      0.422445     -0.059012 
 C23  C     0.344443      0.390972     -0.000665 
 O24  O     0.381782      0.414681      0.059211 
 O25  O    -0.382735      0.416318     -0.057565 
 C26  C    -0.345655      0.396656      0.002760 
 O27  O    -0.362578      0.432215      0.060175 
 C28  C    -0.316462      0.276731     -0.053324 
 C29  C    -0.289029      0.322310      0.004449 
 C30  C    -0.217422      0.296999      0.061125 
 C31  C    -0.180689      0.223913      0.060886 
 C32  C    -0.210038      0.178207      0.003399 
 C33  C    -0.279431      0.204393     -0.053415 
 O34  O    -0.185406      0.345299      0.113929 
 C35  C    -0.096352      0.325811      0.167340 
 C36  C     0.037404      0.321860      0.138779 
 C37  C     0.135443      0.298361      0.193233 
 C38  C     0.117090      0.220701      0.216982 
 O39  O    -0.308339      0.162897     -0.111244 
 C40  C    -0.416047      0.117714     -0.104768 
 C41  C     0.464348      0.158983     -0.122494 
 C42  C     0.464903      0.191136     -0.196200 
 C43  C     0.340052      0.226787     -0.215915 
 H44  H    -0.125064      0.203125      0.104370 
 H45  H    -0.371065      0.295352     -0.098100 
 H46  H    -0.402674      0.071249     -0.141034 
 H47  H    -0.420696      0.096626     -0.051218 
 H48  H    -0.102879      0.367608      0.209385 
 H49  H    -0.124657      0.274714      0.190576 
 H50  H     0.383912      0.122342     -0.117969 
 H51  H     0.448891      0.202653     -0.083092 
 H52  H     0.042264      0.284241      0.093128 
 H53  H     0.064775      0.374677      0.118700 
 H54  H     0.229506      0.303371      0.170222 
 H55  H     0.133562      0.335745      0.239109 
 H56  H    -0.459895      0.231326     -0.199226 
 H57  H     0.488338      0.148311     -0.235147 
 H58  H     0.344217      0.248978     -0.268914 
 H59  H     0.263181      0.187609     -0.215131 
 H60  H     0.316141      0.271310     -0.178960 
 H61  H     0.028091      0.214622      0.245032 
 H62  H     0.117608      0.183068      0.171380 
 H63  H     0.192353      0.203794      0.252517 
 N64  N     0.005459      0.001186      0.318751 
 C65  C    -0.033339     -0.070442      0.290704 
 C66  C    -0.080981      0.056447      0.290766 
 C67  C     0.133160      0.016088      0.292669 
 C68  C    -0.078624      0.054783      0.208843 
 H69  H    -0.176713      0.046251      0.309675 
 H70  H    -0.053769      0.110178      0.311754 
 C71  C    -0.032976     -0.071815      0.208744 
 H72  H     0.030239     -0.112157      0.311224 
 H73  H    -0.127696     -0.082791      0.310209 
 C74  C     0.135639      0.012615      0.210564 
 H75  H     0.162338      0.069909      0.312360 
 H76  H     0.199923     -0.023167      0.314728 
 H77  H     0.028450     -0.115303      0.187691 
 H78  H    -0.128190     -0.082435      0.188738 
 H79  H    -0.173484      0.044115      0.187845 
 H80  H    -0.049985      0.107509      0.188953 
 H81  H     0.199914     -0.030461      0.191532 
 N82  N     0.008769     -0.001831      0.182007 
 H83  H     0.170687      0.063599      0.189649 
 C84  C     0.345365      0.266624      0.043509 
 C85  C     0.290323      0.316757     -0.001518 
 C86  C     0.189067      0.297447     -0.045220 
 C87  C     0.146478      0.226302     -0.046190 
 C88  C     0.200011      0.176546     -0.000285 
 C89  C     0.299253      0.195929      0.044678 
 O90  O     0.128346      0.345261     -0.087235 
 C91  C     0.035511      0.388736     -0.051212 
 C92  C    -0.055490      0.421215     -0.103894 
 C93  C     0.005566      0.469748     -0.158228 
 C94  C     0.074573     -0.465376     -0.125146 
 O95  O     0.344163      0.143954      0.088232 
 C96  C     0.465735      0.150793      0.119617 
 C97  C     0.482552      0.087795      0.168930 
 C98  C     0.464992      0.012417      0.134582 
 C99  C    -0.429179     -0.010397      0.084399 
 H100  H     0.068168      0.211908     -0.080803 
 H101  H     0.424035      0.282626      0.077224 
 H102  H    -0.462357      0.150468      0.078127 
 H103  H     0.471929      0.202308      0.149426 
 H104  H    -0.015843      0.354918     -0.014323 
 H105  H     0.083151      0.431240     -0.019840 
 H106  H    -0.423179      0.090684      0.192623 
 H107  H     0.415545      0.094365      0.212623 
 H108  H    -0.106201      0.377295     -0.131545 
 H109  H    -0.127402      0.452880     -0.074957 
 H110  H     0.071068      0.437386     -0.190907 
 H111  H    -0.067889      0.488978     -0.194226 
 H112  H     0.458136     -0.027540      0.176248 
 H113  H     0.374627      0.010183      0.106254 
 H114  H    -0.338021     -0.011159      0.111540 
 H115  H    -0.445311     -0.064880      0.062261 
 H116  H    -0.421430      0.026339      0.040241 
 H117  H     0.155289     -0.482803     -0.093489 
 H118  H     0.110243     -0.429774     -0.165739 
 H119  H     0.012995     -0.433002     -0.090296 
 C120  C     0.352190     -0.272072     -0.040210 
 C121  C     0.282772     -0.324634     -0.006099 
 C122  C     0.169172     -0.307559      0.027087 
 C123  C     0.127172     -0.235548      0.029106 
 C124  C     0.196935     -0.182906     -0.004676 
 C125  C     0.309473     -0.200239     -0.038967 
 O126  O     0.104559     -0.363868      0.054200 
 C127  C    -0.017333     -0.350979      0.082986 
 C128  C    -0.084478     -0.422948      0.086286 
 C129  C    -0.010922     -0.482715      0.123156 
 C130  C     0.015773     -0.466977      0.201214 
 O131  O     0.372039     -0.145163     -0.069621 
 C132  C    -0.494996     -0.151389     -0.077607 
 C133  C    -0.445794     -0.082588     -0.109515 
 C134  C    -0.481392     -0.072652     -0.187149 
 C135  C     0.377935     -0.062513     -0.200062 
 H136  H     0.040939     -0.220202      0.056665 
 H137  H     0.439355     -0.287099     -0.066950 
 H138  H    -0.454217     -0.159574     -0.025134 
 H139  H    -0.470537     -0.198464     -0.111328 
 H140  H    -0.007032     -0.325063      0.135396 
 H141  H    -0.070614     -0.314265      0.049232 
 H142  H    -0.479238     -0.035710     -0.077940 
 H143  H    -0.342941     -0.082306     -0.104885 
 H144  H    -0.175280     -0.414921      0.112716 
 H145  H    -0.106789     -0.441899      0.032301 
 H146  H    -0.065593      0.467371      0.117645 
 H147  H     0.078050     -0.493147      0.095242 
 H148  H    -0.431365     -0.025631     -0.206974 
 H149  H    -0.447360     -0.119443     -0.218452 
 H150  H     0.325668     -0.110328     -0.184781 
 H151  H     0.341007     -0.015870     -0.169645 
 H152  H     0.357460     -0.054336     -0.255861 
 H153  H     0.070897     -0.417477      0.208976 
 H154  H    -0.071774     -0.460679      0.231104 
 H155  H     0.069606      0.488547      0.224136 
 N156  N     0.497641     -0.493194      0.318644 
 C157  C     0.367203     -0.493914      0.291453 
 C158  C    -0.438758     -0.429398      0.290394 
 C159  C    -0.436706      0.441314      0.291583 
 C160  C    -0.437657     -0.433174      0.208326 
 H161  H    -0.487313     -0.380063      0.309856 
 H162  H    -0.341904     -0.427124      0.310898 
 C163  C     0.365704     -0.495164      0.209303 
 H164  H     0.318476      0.458402      0.311289 
 H165  H     0.316725     -0.445940      0.312443 
 C166  C    -0.440903      0.437554      0.209540 
 H167  H    -0.338645      0.442326      0.310327 
 H168  H    -0.480189      0.393232      0.313820 
 H169  H     0.313141      0.457792      0.188575 
 H170  H     0.317840     -0.446603      0.189585 
 H171  H    -0.481448     -0.384505      0.186396 
 H172  H    -0.340298     -0.435433      0.189011 
 H173  H    -0.490314      0.388697      0.190440 
 N174  N     0.495138     -0.497895      0.181590 
 H175  H    -0.344808      0.434303      0.188475 
 C176  C    -0.320810     -0.278151      0.060137 
 C177  C    -0.314495     -0.319568     -0.002411 
 C178  C    -0.260429     -0.291502     -0.062948 
 C179  C    -0.208903     -0.222220     -0.059385 
 C180  C    -0.213457     -0.181061      0.003286 
 C181  C    -0.269099     -0.208798      0.063704 
 O182  O    -0.264101     -0.330345     -0.125060 
 C183  C    -0.154915     -0.331040     -0.168790 
 C184  C    -0.184271     -0.303148     -0.241984 
 C185  C    -0.250826     -0.229341     -0.243879 
 C186  C    -0.266205     -0.201464     -0.318606 
 O187  O    -0.273380     -0.166023      0.123357 
 C188  C    -0.307499     -0.194449      0.190109 
 C189  C    -0.203419     -0.242723      0.218227 
 C190  C    -0.216394     -0.256800      0.296993 
 C191  C    -0.110891     -0.304259      0.325882 
 H192  H    -0.165781     -0.200384     -0.106115 
 H193  H    -0.365742     -0.299938      0.106412 
 H194  H    -0.322391     -0.147526      0.225760 
 H195  H    -0.397387     -0.223038      0.186433 
 H196  H    -0.078070     -0.301161     -0.142906 
 H197  H    -0.123901     -0.387702     -0.173350 
 H198  H    -0.202412     -0.294795      0.189080 
 H199  H    -0.111612     -0.217923      0.208881 
 H200  H    -0.096029     -0.300300     -0.271563 
 H201  H    -0.242034     -0.343068     -0.270878 
 H202  H    -0.343472     -0.233642     -0.219071 
 H203  H    -0.197958     -0.189273     -0.212470 
 H204  H    -0.217499     -0.204839      0.326400 
 H205  H    -0.307528     -0.282138      0.306946 
 H206  H    -0.018804     -0.278984      0.319698 
 H207  H    -0.124033     -0.313209      0.382242 
 H208  H    -0.108329     -0.357445      0.299141 
 H209  H    -0.174378     -0.191561     -0.342251 
 H210  H    -0.315356     -0.240704     -0.352920 
 H211  H    -0.319201     -0.150397     -0.319306 
 Cu212  Cu    -0.014860      0.007510     -0.432147 
 Cu213  Cu    -0.011507      0.007403      0.431056 
 O214  O    -0.146529      0.080122      0.438615 
 C215  C    -0.182623      0.103063      0.498835 
 O216  O    -0.169645      0.069294     -0.443873 
 O217  O     0.108376      0.089187      0.443813 
 C218  C     0.117562      0.122302     -0.496829 
 O219  O     0.082446      0.097289     -0.438485 
 O220  O    -0.133440     -0.073631      0.440312 
 C221  C    -0.145391     -0.106081      0.498210 
 O222  O    -0.110859     -0.082266     -0.441489 
 O223  O     0.125339     -0.063930      0.436578 
 C224  C     0.158973     -0.088112      0.495773 
 O225  O     0.138551     -0.056235     -0.445041 
 Cu226  Cu     0.496774     -0.492311     -0.430959 
 Cu227  Cu    -0.497379     -0.494070      0.432119 
 O228  O     0.381419     -0.410676      0.444326 
 C229  C     0.359764     -0.380573     -0.495762 
 O230  O     0.381306     -0.409291     -0.436869 
 O231  O    -0.365412     -0.422230      0.439072 
 C232  C    -0.337575     -0.395009      0.499039 
 O233  O    -0.362531     -0.421918     -0.441578 
 O234  O     0.368601      0.433469      0.436334 
 C235  C     0.334592      0.407876      0.494646 
 O236  O     0.358076      0.436136     -0.444942 
 O237  O    -0.370076      0.426129      0.444562 
 C238  C    -0.352845      0.398439     -0.495361 
 O239  O    -0.386735      0.425836     -0.436556 
 C240  C    -0.376316      0.272113     -0.460069 
 C241  C    -0.302082      0.323354     -0.492600 
 C242  C    -0.189659      0.304257      0.474268 
 C243  C    -0.153929      0.231436      0.470215 
 C244  C    -0.229133      0.179497     -0.498242 
 C245  C    -0.341436      0.198899     -0.464288 
 O246  O    -0.113930      0.358717      0.453384 
 C247  C    -0.069576      0.357737      0.382565 
 C248  C     0.022040      0.419953      0.376585 
 C249  C    -0.031202      0.494150      0.399993 
 C250  C     0.066703     -0.445721      0.397925 
 O251  O    -0.414338      0.145055     -0.438594 
 C252  C     0.466580      0.164085     -0.408250 
 C253  C     0.383568      0.097856     -0.405246 
 C254  C     0.422948      0.038349     -0.354753 
 C255  C    -0.439579      0.014870     -0.359927 
 H256  H    -0.065725      0.216432      0.444838 
 H257  H    -0.462899      0.289772     -0.434048 
 H258  H     0.482248      0.188408     -0.355585 
 H259  H     0.419318      0.204326     -0.440994 
 H260  H    -0.023545      0.305732      0.369352 
 H261  H    -0.150486      0.364465      0.347067 
 H262  H     0.289422      0.116387     -0.389589 
 H263  H     0.373184      0.074527     -0.458700 
 H264  H     0.105497      0.408297      0.408739 
 H265  H     0.055442      0.422522      0.322083 
 H266  H    -0.112432     -0.491811      0.366921 
 H267  H    -0.067677      0.491189      0.453968 
 H268  H     0.402454      0.056501     -0.300473 
 H269  H     0.362741     -0.008761     -0.365556 
 H270  H    -0.413121      0.000973     -0.414260 
 H271  H    -0.377542      0.058399     -0.341361 
 H272  H    -0.420662     -0.032656     -0.328080 
 H273  H     0.149184     -0.459199      0.430060 
 H274  H     0.099249     -0.436837      0.344153 
 H275  H     0.028359     -0.394364      0.418778 
 N276  N    -0.014919      0.003687     -0.181256 
 C277  C    -0.142845      0.015077     -0.209112 
 C278  C     0.065505      0.062542     -0.206154 
 C279  C     0.032998     -0.065449     -0.211114 
 C280  C     0.063353      0.065124     -0.288062 
 H281  H     0.032914      0.114370     -0.182735 
 H282  H     0.162068      0.053779     -0.187048 
 C283  C    -0.141984      0.014489     -0.291207 
 H284  H    -0.204817     -0.027273     -0.189457 
 H285  H    -0.179186      0.067169     -0.188373 
 C286  C     0.038755     -0.063206     -0.293041 
 H287  H     0.126674     -0.076222     -0.189198 
 H288  H    -0.028213     -0.109463     -0.194184 
 H289  H    -0.199758     -0.029964     -0.312809 
 H290  H    -0.181884      0.065419     -0.310552 
 H291  H     0.023266      0.116772     -0.305329 
 H292  H     0.159233      0.061148     -0.309272 
 H293  H    -0.013375     -0.108645     -0.317229 
 N294  N    -0.013030      0.005829     -0.318295 
 H295  H     0.136650     -0.068672     -0.310964 
 C296  C     0.210886      0.315484     -0.444444 
 C297  C     0.269811      0.335998      0.493580 
 C298  C     0.276514      0.288192      0.435070 
 C299  C     0.224277      0.219309      0.439832 
 C300  C     0.169322      0.197716     -0.497385 
 C301  C     0.162357      0.245584     -0.438708 
 O302  O     0.332147      0.309875      0.374271 
 C303  C     0.402984      0.258560      0.332195 
 C304  C    -0.477450      0.237535      0.370864 
 C305  C    -0.388338      0.188511      0.327676 
 C306  C    -0.323123      0.226627      0.267368 
 O307  O     0.110168      0.221928     -0.377486 
 C308  C     0.086226      0.270475     -0.318677 
 C309  C    -0.038932      0.309044     -0.328620 
 C310  C    -0.153928      0.259899     -0.323443 
 C311  C    -0.181257      0.234193     -0.249010 
 H312  H     0.226807      0.182339      0.394320 
 H313  H     0.205358      0.354086     -0.400231 
 H314  H     0.084094      0.237848     -0.271121 
 H315  H     0.163219      0.309042     -0.310663 
 H316  H     0.347656      0.210368      0.318694 
 H317  H     0.424248      0.284808      0.282362 
 H318  H    -0.047359      0.353393     -0.289262 
 H319  H    -0.039994      0.334354     -0.380463 
 H320  H    -0.427215      0.286761      0.387725 
 H321  H     0.497401      0.209722      0.419334 
 H322  H    -0.316383      0.166442      0.363044 
 H323  H    -0.440562      0.141550      0.307085 
 H324  H    -0.236572      0.289377     -0.342884 
 H325  H    -0.141716      0.212807     -0.359330 
 H326  H    -0.262825      0.198266     -0.249406 
 H327  H    -0.102014      0.204099     -0.226791 
 H328  H    -0.202050      0.279913     -0.212890 
 H329  H    -0.265753      0.271540      0.287777 
 H330  H    -0.260971      0.189017      0.238271 
 H331  H    -0.390387      0.248876      0.229600 
 C332  C     0.248176     -0.191022     -0.438084 
 C333  C     0.218690     -0.162138      0.496544 
 C334  C     0.240232     -0.203144      0.434462 
 C335  C     0.284547     -0.274321      0.438791 
 C336  C     0.312323     -0.303695     -0.495770 
 C337  C     0.297219     -0.261348     -0.433770 
 O338  O     0.212211     -0.174944      0.370412 
 C339  C     0.296644     -0.189664      0.313177 
 C340  C     0.236239     -0.241335      0.259719 
 C341  C     0.320942     -0.259532      0.196545 
 C342  C     0.356176     -0.193627      0.153578 
 O343  O     0.322591     -0.289999     -0.369484 
 C344  C     0.381202     -0.244690     -0.316666 
 C345  C     0.374167     -0.281472     -0.246104 
 C346  C     0.240666     -0.300013     -0.222608 
 C347  C     0.154349     -0.233997     -0.214044 
 H348  H     0.295732     -0.306873      0.390598 
 H349  H     0.228391     -0.159654     -0.390058 
 H350  H     0.479305     -0.237193     -0.332447 
 H351  H     0.337776     -0.190762     -0.312512 
 H352  H     0.315959     -0.137347      0.289324 
 H353  H     0.387131     -0.210838      0.332420 
 H354  H     0.430982     -0.331150     -0.248389 
 H355  H     0.418060     -0.246504     -0.205543 
 H356  H     0.210057     -0.291886      0.285088 
 H357  H     0.147831     -0.217600      0.240510 
 H358  H     0.406812     -0.286284      0.215251 
 H359  H     0.273384     -0.299459      0.162062 
 H360  H     0.198781     -0.338944     -0.260371 
 H361  H     0.246378     -0.327753     -0.172090 
 H362  H     0.191014     -0.195968     -0.173995 
 H363  H     0.143002     -0.205537     -0.263697 
 H364  H     0.060736     -0.249519     -0.196802 
 H365  H     0.411212     -0.209788      0.106952 
 H366  H     0.272198     -0.164906      0.135154 
 H367  H     0.412477     -0.154724      0.184349 
 N368  N     0.496341      0.486099     -0.182160 
 C369  C    -0.416293     -0.458347     -0.206797 
 C370  C    -0.462787      0.415289     -0.211744 
 C371  C     0.369638     -0.498139     -0.210029 
 C372  C    -0.462921      0.416493     -0.293857 
 H373  H    -0.367948      0.402791     -0.191821 
 H374  H     0.474550      0.373016     -0.192499 
 C375  C    -0.413756     -0.457325     -0.288713 
 H376  H    -0.445599     -0.405175     -0.185033 
 H377  H    -0.321640     -0.469731     -0.185960 
 C378  C     0.371473     -0.495446     -0.291847 
 H379  H     0.304531      0.460025     -0.192394 
 H380  H     0.335942     -0.446182     -0.187701 
 H381  H    -0.438995     -0.403295     -0.307695 
 H382  H    -0.318485     -0.469427     -0.308101 
 H383  H    -0.368535      0.403057     -0.313936 
 H384  H     0.472697      0.375586     -0.316333 
 H385  H     0.341849     -0.441540     -0.309049 
 N386  N     0.498774      0.488659     -0.318904 
 H387  H     0.304838      0.465374     -0.315085 
 C388  C    -0.354046     -0.268205      0.463141 
 C389  C    -0.284459     -0.320927      0.498049 
 C390  C    -0.169440     -0.305315     -0.469636 
 C391  C    -0.125444     -0.234125     -0.470528 
 C392  C    -0.196852     -0.180764      0.496351 
 C393  C    -0.311893     -0.197010      0.463612 
 O394  O    -0.106012     -0.361773     -0.440202 
 C395  C     0.020254     -0.351217     -0.416609 
 C396  C     0.081688     -0.422715     -0.397036 
 C397  C     0.010051     -0.468608     -0.344358 
 C398  C    -0.096803      0.487183     -0.377610 
 O399  O    -0.385771     -0.147776      0.430074 
 C400  C    -0.435860     -0.089935      0.473303 
 C401  C     0.465021     -0.047808      0.432998 
 C402  C    -0.483462      0.003170      0.377599 
 C403  C    -0.415241     -0.035507      0.316594 
 H404  H    -0.036034     -0.220304     -0.445633 
 H405  H    -0.442652     -0.281068      0.436978 
 H406  H    -0.476639     -0.113118     -0.479118 
 H407  H    -0.359610     -0.053516      0.489895 
 H408  H     0.073157     -0.326776     -0.459438 
 H409  H     0.020500     -0.313134     -0.371245 
 H410  H     0.398882     -0.085592      0.407627 
 H411  H     0.408897     -0.015735      0.470980 
 H412  H     0.100015     -0.455568     -0.445017 
 H413  H     0.174595     -0.410402     -0.374759 
 H414  H     0.076812      0.494047     -0.319611 
 H415  H    -0.026632     -0.433466     -0.301597 
 H416  H     0.438132      0.035383      0.356735 
 H417  H    -0.419481      0.042027      0.403588 
 H418  H    -0.476593     -0.074785      0.289639 
 H419  H    -0.383413      0.003020      0.277593 
 H420  H    -0.331953     -0.064584      0.335382 
 H421  H    -0.061821      0.450405     -0.419418 
 H422  H    -0.144114      0.454463     -0.338451 
 H423  H    -0.168502     -0.478302     -0.401440 
loop_  
_geom_bond_atom_site_label_1  
_geom_bond_atom_site_label_2  
Cu0   Cu1 
Cu0   O4 
Cu0   O7 
Cu0   O10 
Cu0   O13 
Cu0   N82 
Cu1   O2 
Cu1   O5 
Cu1   O8 
Cu1   O11 
Cu1   N276 
O2   C3 
C3   O4 
C3   C32 
O5   C6 
C6   O7 
C6   C88 
O8   C9 
C9   O10 
C9   C180 
O11   C12 
C12   O13 
C12   C124 
Cu14   Cu15 
Cu14   O18 
Cu14   O21 
Cu14   O24 
Cu14   O27 
Cu14   N174 
Cu15   O16 
Cu15   O19 
Cu15   O22 
Cu15   O25 
Cu15   N368 
O16   C17 
C17   O18 
C17   C121 
O19   C20 
C20   O21 
C20   C177 
O22   C23 
C23   O24 
C23   C85 
O25   C26 
C26   O27 
C26   C29 
C28   C29 
C28   C33 
C28   H45 
C29   C30 
C30   C31 
C30   O34 
C31   C32 
C31   H44 
C32   C33 
C33   O39 
O34   C35 
C35   C36 
C35   H48 
C35   H49 
C36   C37 
C36   H52 
C36   H53 
C37   C38 
C37   H54 
C37   H55 
C38   H61 
C38   H62 
C38   H63 
O39   C40 
C40   C41 
C40   H46 
C40   H47 
C41   C42 
C41   H50 
C41   H51 
C42   C43 
C42   H56 
C42   H57 
C43   H58 
C43   H59 
C43   H60 
N64   C65 
N64   C66 
N64   C67 
N64   Cu213 
C65   C71 
C65   H72 
C65   H73 
C66   C68 
C66   H69 
C66   H70 
C67   C74 
C67   H75 
C67   H76 
C68   H79 
C68   H80 
C68   N82 
C71   H77 
C71   H78 
C71   N82 
C74   H81 
C74   N82 
C74   H83 
C84   C85 
C84   C89 
C84   H101 
C85   C86 
C86   C87 
C86   O90 
C87   C88 
C87   H100 
C88   C89 
C89   O95 
O90   C91 
C91   C92 
C91   H104 
C91   H105 
C92   C93 
C92   H108 
C92   H109 
C93   C94 
C93   H110 
C93   H111 
C94   H117 
C94   H118 
C94   H119 
O95   C96 
C96   C97 
C96   H102 
C96   H103 
C97   C98 
C97   H106 
C97   H107 
C98   C99 
C98   H112 
C98   H113 
C99   H114 
C99   H115 
C99   H116 
C120   C121 
C120   C125 
C120   H137 
C121   C122 
C122   C123 
C122   O126 
C123   C124 
C123   H136 
C124   C125 
C125   O131 
O126   C127 
C127   C128 
C127   H140 
C127   H141 
C128   C129 
C128   H144 
C128   H145 
C129   C130 
C129   H146 
C129   H147 
C130   H153 
C130   H154 
C130   H155 
O131   C132 
C132   C133 
C132   H138 
C132   H139 
C133   C134 
C133   H142 
C133   H143 
C134   C135 
C134   H148 
C134   H149 
C135   H150 
C135   H151 
C135   H152 
N156   C157 
N156   C158 
N156   C159 
N156   Cu227 
C157   C163 
C157   H164 
C157   H165 
C158   C160 
C158   H161 
C158   H162 
C159   C166 
C159   H167 
C159   H168 
C160   H171 
C160   H172 
C160   N174 
C163   H169 
C163   H170 
C163   N174 
C166   H173 
C166   N174 
C166   H175 
C176   C177 
C176   C181 
C176   H193 
C177   C178 
C178   C179 
C178   O182 
C179   C180 
C179   H192 
C180   C181 
C181   O187 
O182   C183 
C183   C184 
C183   H196 
C183   H197 
C184   C185 
C184   H200 
C184   H201 
C185   C186 
C185   H202 
C185   H203 
C186   H209 
C186   H210 
C186   H211 
O187   C188 
C188   C189 
C188   H194 
C188   H195 
C189   C190 
C189   H198 
C189   H199 
C190   C191 
C190   H204 
C190   H205 
C191   H206 
C191   H207 
C191   H208 
Cu212   Cu213 
Cu212   O216 
Cu212   O219 
Cu212   O222 
Cu212   O225 
Cu212   N294 
Cu213   O214 
Cu213   O217 
Cu213   O220 
Cu213   O223 
O214   C215 
C215   O216 
C215   C244 
O217   C218 
C218   O219 
C218   C300 
O220   C221 
C221   O222 
C221   C392 
O223   C224 
C224   O225 
C224   C333 
Cu226   Cu227 
Cu226   O230 
Cu226   O233 
Cu226   O236 
Cu226   O239 
Cu226   N386 
Cu227   O228 
Cu227   O231 
Cu227   O234 
Cu227   O237 
O228   C229 
C229   O230 
C229   C336 
O231   C232 
C232   O233 
C232   C389 
O234   C235 
C235   O236 
C235   C297 
O237   C238 
C238   O239 
C238   C241 
C240   C241 
C240   C245 
C240   H257 
C241   C242 
C242   C243 
C242   O246 
C243   C244 
C243   H256 
C244   C245 
C245   O251 
O246   C247 
C247   C248 
C247   H260 
C247   H261 
C248   C249 
C248   H264 
C248   H265 
C249   C250 
C249   H266 
C249   H267 
C250   H273 
C250   H274 
C250   H275 
O251   C252 
C252   C253 
C252   H258 
C252   H259 
C253   C254 
C253   H262 
C253   H263 
C254   C255 
C254   H268 
C254   H269 
C255   H270 
C255   H271 
C255   H272 
N276   C277 
N276   C278 
N276   C279 
C277   C283 
C277   H284 
C277   H285 
C278   C280 
C278   H281 
C278   H282 
C279   C286 
C279   H287 
C279   H288 
C280   H291 
C280   H292 
C280   N294 
C283   H289 
C283   H290 
C283   N294 
C286   H293 
C286   N294 
C286   H295 
C296   C297 
C296   C301 
C296   H313 
C297   C298 
C298   C299 
C298   O302 
C299   C300 
C299   H312 
C300   C301 
C301   O307 
O302   C303 
C303   C304 
C303   H316 
C303   H317 
C304   C305 
C304   H320 
C304   H321 
C305   C306 
C305   H322 
C305   H323 
C306   H329 
C306   H330 
C306   H331 
O307   C308 
C308   C309 
C308   H314 
C308   H315 
C309   C310 
C309   H318 
C309   H319 
C310   C311 
C310   H324 
C310   H325 
C311   H326 
C311   H327 
C311   H328 
C332   C333 
C332   C337 
C332   H349 
C333   C334 
C334   C335 
C334   O338 
C335   C336 
C335   H348 
C336   C337 
C337   O343 
O338   C339 
C339   C340 
C339   H352 
C339   H353 
C340   C341 
C340   H356 
C340   H357 
C341   C342 
C341   H358 
C341   H359 
C342   H365 
C342   H366 
C342   H367 
O343   C344 
C344   C345 
C344   H350 
C344   H351 
C345   C346 
C345   H354 
C345   H355 
C346   C347 
C346   H360 
C346   H361 
C347   H362 
C347   H363 
C347   H364 
N368   C369 
N368   C370 
N368   C371 
C369   C375 
C369   H376 
C369   H377 
C370   C372 
C370   H373 
C370   H374 
C371   C378 
C371   H379 
C371   H380 
C372   H383 
C372   H384 
C372   N386 
C375   H381 
C375   H382 
C375   N386 
C378   H385 
C378   N386 
C378   H387 
C388   C389 
C388   C393 
C388   H405 
C389   C390 
C390   C391 
C390   O394 
C391   C392 
C391   H404 
C392   C393 
C393   O399 
O394   C395 
C395   C396 
C395   H408 
C395   H409 
C396   C397 
C396   H412 
C396   H413 
C397   C398 
C397   H414 
C397   H415 
C398   H421 
C398   H422 
C398   H423 
O399   C400 
C400   C401 
C400   H406 
C400   H407 
C401   C402 
C401   H410 
C401   H411 
C402   C403 
C402   H416 
C402   H417 
C403   H418 
C403   H419 
C403   H420 
  
#END  
