data_
_symmetry_cell_setting           triclinic 
_symmetry_space_group_name_H-M   'P 1' 
_symmetry_Int_Tables_number      1 
loop_ 
_symmetry_equiv_pos_site_id 
_symmetry_equiv_pos_as_xyz 
1 x,y,z 
_cell_length_a             15.322914        
_cell_length_b             15.423144        
_cell_length_c             19.068515        
_cell_angle_alpha          89.831082        
_cell_angle_beta           90.165579        
_cell_angle_gamma          89.879651        
loop_  
_atom_site_label   
_atom_site_type_symbol  
_atom_site_fract_x  
_atom_site_fract_y  
_atom_site_fract_z 
 Cu0  Cu    -0.004057     -0.005701      0.062951 
 Cu1  Cu    -0.001408     -0.002274     -0.073540 
 O2  O    -0.085029      0.095995     -0.061482 
 C3  C    -0.125098      0.107205     -0.003628 
 O4  O    -0.109587      0.066247      0.053059 
 O5  O     0.096331      0.079710     -0.062529 
 C6  C     0.111312      0.116437     -0.004054 
 O7  O     0.071349      0.100821      0.053154 
 O8  O    -0.100367     -0.085036     -0.067861 
 C9  C    -0.116526     -0.124147     -0.010522 
 O10  O    -0.077826     -0.109988      0.047714 
 O11  O     0.082690     -0.101269     -0.061171 
 C12  C     0.118278     -0.117030     -0.001907 
 O13  O     0.100476     -0.078967      0.055420 
 Cu14  Cu     0.497836      0.493263      0.072753 
 Cu15  Cu     0.497000      0.497239     -0.063633 
 O16  O     0.392202     -0.429450     -0.052303 
 C17  C     0.375419     -0.392453      0.005735 
 O18  O     0.413866     -0.407679      0.063887 
 O19  O    -0.428315     -0.398788     -0.049098 
 C20  C    -0.387841     -0.385307      0.008419 
 O21  O    -0.402993     -0.424438      0.065908 
 O22  O     0.421902      0.391575     -0.055011 
 C23  C     0.383055      0.375951      0.002736 
 O24  O     0.399641      0.411720      0.061376 
 O25  O    -0.397366      0.424289     -0.055009 
 C26  C    -0.380966      0.383161      0.001487 
 O27  O    -0.419605      0.394728      0.059894 
 C28  C    -0.318218      0.247683      0.050391 
 C29  C    -0.312867      0.313140     -0.000479 
 C30  C    -0.247853      0.311279     -0.052352 
 C31  C    -0.188971      0.241564     -0.053447 
 C32  C    -0.194108      0.176374     -0.002436 
 C33  C    -0.259529      0.177790      0.049102 
 O34  O    -0.242768      0.378847     -0.099130 
 C35  C    -0.181378      0.374641     -0.155675 
 C36  C    -0.186197      0.459534     -0.196450 
 C37  C    -0.126952      0.462545     -0.261305 
 C38  C    -0.154156      0.400452     -0.320315 
 O39  O    -0.263498      0.109400      0.095211 
 C40  C    -0.329822      0.104240      0.148051 
 C41  C    -0.302329      0.155989      0.212420 
 C42  C    -0.367568      0.149561      0.273224 
 C43  C    -0.334610      0.192024      0.340855 
 H44  H    -0.137437      0.238953     -0.092816 
 H45  H    -0.369358      0.250416      0.090058 
 H46  H    -0.393458      0.125371      0.127068 
 H47  H    -0.336544      0.035105      0.161611 
 H48  H    -0.114956      0.365174     -0.134674 
 H49  H    -0.198009      0.318873     -0.189092 
 H50  H    -0.238214      0.132439      0.230534 
 H51  H    -0.292872      0.224680      0.198427 
 H52  H    -0.253879      0.472249     -0.212941 
 H53  H    -0.168547     -0.486878     -0.161039 
 H54  H    -0.126692     -0.470624     -0.281668 
 H55  H    -0.059258      0.448592     -0.245227 
 H56  H    -0.429768      0.179740      0.257345 
 H57  H    -0.382007      0.080853      0.283765 
 H58  H    -0.383716      0.187965      0.382648 
 H59  H    -0.274925      0.160174      0.360239 
 H60  H    -0.319308      0.260902      0.332841 
 H61  H    -0.110717      0.406486     -0.365828 
 H62  H    -0.151873      0.332342     -0.303333 
 H63  H    -0.220850      0.414121     -0.338782 
 N64  N    -0.006655     -0.021113      0.314158 
 C65  C    -0.014753     -0.111746      0.289276 
 C66  C    -0.081655      0.028893      0.286234 
 C67  C     0.074334      0.015252      0.284504 
 C68  C    -0.085280      0.023091      0.204533 
 H69  H    -0.142485      0.004231      0.309737 
 H70  H    -0.075365      0.097118      0.302629 
 C71  C    -0.015447     -0.115229      0.207108 
 H72  H     0.039692     -0.150472      0.310842 
 H73  H    -0.075228     -0.139875      0.310664 
 C74  C     0.071931      0.012121      0.202773 
 H75  H     0.081800      0.082551      0.302549 
 H76  H     0.130823     -0.021364      0.305139 
 H77  H     0.039956     -0.153687      0.187295 
 H78  H    -0.075256     -0.146773      0.187714 
 H79  H    -0.145985     -0.008823      0.187251 
 H80  H    -0.086032      0.088423      0.181248 
 H81  H     0.127213     -0.026469      0.183081 
 N82  N    -0.010230     -0.026865      0.177180 
 H83  H     0.078708      0.077669      0.180698 
 C84  C     0.173780      0.253592      0.043642 
 C85  C     0.182219      0.183381     -0.002344 
 C86  C     0.255714      0.175287     -0.045775 
 C87  C     0.320065      0.239618     -0.044618 
 C88  C     0.311726      0.309609      0.001430 
 C89  C     0.238418      0.317956      0.045019 
 O90  O     0.262447      0.105880     -0.089936 
 C91  C     0.340855      0.054953     -0.086003 
 C92  C     0.327077     -0.026096     -0.130009 
 C93  C     0.404908     -0.089073     -0.128021 
 C94  C     0.391043     -0.170067     -0.173118 
 O95  O     0.234218      0.388898      0.088021 
 C96  C     0.151138      0.427681      0.102595 
 C97  C     0.167627     -0.486686      0.139825 
 C98  C     0.083697     -0.436542      0.157228 
 C99  C     0.100832     -0.351025      0.195690 
 H100  H     0.376480      0.234526     -0.079173 
 H101  H     0.116880      0.258675      0.077653 
 H102  H     0.114675      0.437375      0.053314 
 H103  H     0.112806      0.384508      0.136309 
 H104  H     0.397030      0.092381     -0.104864 
 H105  H     0.354510      0.038150     -0.031055 
 H106  H     0.204085     -0.499222      0.188704 
 H107  H     0.210181     -0.445649      0.107170 
 H108  H     0.268239     -0.060086     -0.111436 
 H109  H     0.313649     -0.007180     -0.184761 
 H110  H     0.464130     -0.055083     -0.145591 
 H111  H     0.417304     -0.109089     -0.073375 
 H112  H     0.047516     -0.423059      0.108375 
 H113  H     0.040912     -0.477751      0.189471 
 H114  H     0.039367     -0.317313      0.207430 
 H115  H     0.135106     -0.362141      0.245657 
 H116  H     0.141019     -0.307049      0.163824 
 H117  H     0.447790     -0.213553     -0.169825 
 H118  H     0.333723     -0.206939     -0.155592 
 H119  H     0.381173     -0.152984     -0.228595 
 C120  C     0.183611     -0.251310     -0.050922 
 C121  C     0.186054     -0.187220      0.000806 
 C122  C     0.248815     -0.190907      0.054708 
 C123  C     0.307131     -0.260826      0.057951 
 C124  C     0.305399     -0.324288      0.005627 
 C125  C     0.241621     -0.321317     -0.047345 
 O126  O     0.255255     -0.128171      0.104943 
 C127  C     0.300682     -0.052072      0.081805 
 C128  C     0.309985      0.014190      0.140385 
 C129  C     0.377998      0.084437      0.123877 
 C130  C     0.384567      0.154852      0.180058 
 O131  O     0.235266     -0.384787     -0.096747 
 C132  C     0.179355     -0.455038     -0.076810 
 C133  C     0.182002      0.474444     -0.132329 
 C134  C     0.112686      0.403983     -0.121124 
 C135  C     0.118658      0.329678     -0.174030 
 H136  H     0.355799     -0.262817      0.099753 
 H137  H     0.135158     -0.249300     -0.092885 
 H138  H     0.201797     -0.480966     -0.025969 
 H139  H     0.112550     -0.429889     -0.069950 
 H140  H     0.365264     -0.072146      0.062282 
 H141  H     0.263878     -0.023401      0.037771 
 H142  H     0.173625     -0.496793     -0.184872 
 H143  H     0.247159      0.444189     -0.131498 
 H144  H     0.246327      0.045467      0.149212 
 H145  H     0.327697     -0.018333      0.189907 
 H146  H     0.442336      0.053721      0.116951 
 H147  H     0.361742      0.115344      0.073403 
 H148  H     0.119223      0.377309     -0.067760 
 H149  H     0.047304      0.433594     -0.123960 
 H150  H     0.067838      0.281153     -0.163953 
 H151  H     0.110534      0.353114     -0.228168 
 H152  H     0.182083      0.296522     -0.170195 
 H153  H     0.434865      0.202557      0.166245 
 H154  H     0.322473      0.189996      0.184949 
 H155  H     0.401337      0.127353      0.231624 
 N156  N     0.493514      0.480715      0.322572 
 C157  C    -0.477189      0.395077      0.296677 
 C158  C     0.404827      0.496851      0.294480 
 C159  C    -0.446778     -0.452975      0.294203 
 C160  C     0.404367      0.491576      0.212704 
 H161  H     0.359185      0.449480      0.317367 
 H162  H     0.382723     -0.438711      0.311668 
 C163  C    -0.474018      0.394301      0.214640 
 H164  H    -0.412317      0.380300      0.318782 
 H165  H     0.477990      0.344887      0.316558 
 C166  C    -0.449087     -0.452823      0.212504 
 H167  H    -0.464721     -0.388618      0.314529 
 H168  H    -0.380273     -0.467142      0.313359 
 H169  H    -0.406639      0.383631      0.196329 
 H170  H     0.486300      0.341070      0.193134 
 H171  H     0.362769      0.437613      0.194955 
 H172  H     0.376661     -0.448831      0.189591 
 H173  H    -0.382868     -0.462306      0.191505 
 N174  N     0.493790      0.477592      0.185809 
 H175  H    -0.472821     -0.389871      0.192649 
 C176  C    -0.194811     -0.238659      0.053832 
 C177  C    -0.186444     -0.192474     -0.009042 
 C178  C    -0.242944     -0.209424     -0.065596 
 C179  C    -0.308277     -0.272180     -0.057092 
 C180  C    -0.316942     -0.318002      0.005998 
 C181  C    -0.260147     -0.301295      0.062419 
 O182  O    -0.234013     -0.164892     -0.127582 
 C183  C    -0.296168     -0.180284     -0.182762 
 C184  C    -0.272587     -0.124805     -0.245780 
 C185  C    -0.337957     -0.131624     -0.306706 
 C186  C    -0.313329     -0.074086     -0.369179 
 O187  O    -0.268609     -0.345565      0.124579 
 C188  C    -0.205530     -0.330190      0.179106 
 C189  C    -0.228726     -0.384214      0.242966 
 C190  C    -0.162510     -0.376850      0.303233 
 C191  C    -0.187786     -0.431815      0.367004 
 H192  H    -0.353187     -0.285592     -0.100183 
 H193  H    -0.149776     -0.225265      0.096830 
 H194  H    -0.140061     -0.347660      0.159816 
 H195  H    -0.206065     -0.260923      0.193138 
 H196  H    -0.294713     -0.249368     -0.197361 
 H197  H    -0.362097     -0.163830     -0.163909 
 H198  H    -0.293139     -0.363228      0.261996 
 H199  H    -0.234942     -0.452763      0.227630 
 H200  H    -0.267351     -0.056519     -0.229467 
 H201  H    -0.207632     -0.144535     -0.264537 
 H202  H    -0.342162     -0.199553     -0.324125 
 H203  H    -0.403585     -0.113740     -0.288207 
 H204  H    -0.097517     -0.396792      0.284673 
 H205  H    -0.156636     -0.308513      0.319213 
 H206  H    -0.139187     -0.425866      0.409153 
 H207  H    -0.251144     -0.411410      0.388278 
 H208  H    -0.193260      0.499334      0.353148 
 H209  H    -0.361432     -0.079815     -0.411726 
 H210  H    -0.309699     -0.005568     -0.353929 
 H211  H    -0.249315     -0.092362     -0.390468 
 Cu212  Cu     0.002447      0.004028     -0.437056 
 Cu213  Cu     0.000802      0.002760      0.426614 
 O214  O    -0.082234      0.102304      0.437960 
 C215  C    -0.117454      0.118219      0.497002 
 O216  O    -0.103633      0.076772     -0.446150 
 O217  O     0.098098      0.087146      0.433981 
 C218  C     0.112468      0.126695      0.491366 
 O219  O     0.075816      0.109517     -0.450146 
 O220  O    -0.096692     -0.081079      0.436843 
 C221  C    -0.108318     -0.120600      0.494865 
 O222  O    -0.069598     -0.103769     -0.447611 
 O223  O     0.085807     -0.094577      0.439459 
 C224  C     0.122913     -0.109425      0.498373 
 O225  O     0.107550     -0.069006     -0.444888 
 Cu226  Cu    -0.496621     -0.495151     -0.428940 
 Cu227  Cu    -0.497005     -0.498003      0.434782 
 O228  O     0.400345     -0.421325      0.441253 
 C229  C     0.385224     -0.380371      0.497776 
 O230  O     0.421429     -0.395720     -0.443030 
 O231  O    -0.421667     -0.392495      0.444347 
 C232  C    -0.383501     -0.375256     -0.497965 
 O233  O    -0.396264     -0.414072     -0.439749 
 O234  O     0.424709      0.400203      0.447172 
 C235  C     0.386114      0.385747     -0.494737 
 O236  O     0.403288      0.423479     -0.437006 
 O237  O    -0.393531      0.425276      0.445605 
 C238  C    -0.379931      0.385952     -0.496520 
 O239  O    -0.416562      0.403033     -0.438293 
 C240  C    -0.264722      0.169557     -0.471675 
 C241  C    -0.182790      0.190175     -0.499197 
 C242  C    -0.163797      0.273803      0.475978 
 C243  C    -0.230696      0.336239      0.475711 
 C244  C    -0.312972      0.315303     -0.497575 
 C245  C    -0.331727      0.231805     -0.472371 
 O246  O    -0.079923      0.291554      0.454928 
 C247  C    -0.059649      0.378489      0.433277 
 C248  C     0.038487      0.391303      0.426654 
 C249  C     0.062189      0.482505      0.399656 
 C250  C     0.160517     -0.499387      0.396209 
 O251  O    -0.415578      0.213660     -0.451634 
 C252  C    -0.436717      0.125559     -0.433957 
 C253  C     0.464904      0.114045     -0.428705 
 C254  C     0.438746      0.021403     -0.407105 
 C255  C     0.339875      0.006454     -0.403304 
 H256  H    -0.219368      0.401737      0.455800 
 H257  H    -0.276217      0.104044     -0.451833 
 H258  H    -0.410868      0.081694     -0.474421 
 H259  H    -0.405166      0.109819     -0.383504 
 H260  H    -0.092102      0.390456      0.382528 
 H261  H    -0.085436      0.424677      0.472023 
 H262  H     0.438704      0.160658     -0.390763 
 H263  H     0.434164      0.130609     -0.479334 
 H264  H     0.069925      0.379894      0.477890 
 H265  H     0.065733      0.341905      0.391535 
 H266  H     0.033430      0.492132      0.347205 
 H267  H     0.031295     -0.468750      0.433562 
 H268  H     0.467205     -0.024877     -0.444433 
 H269  H     0.468268      0.005756     -0.355875 
 H270  H     0.325104     -0.061621     -0.391018 
 H271  H     0.309336      0.046215     -0.362526 
 H272  H     0.307467      0.022023     -0.453285 
 H273  H     0.173258     -0.432140      0.380003 
 H274  H     0.192237      0.490851      0.447376 
 H275  H     0.193309      0.458217      0.358456 
 N276  N     0.003838      0.017050     -0.186808 
 C277  C    -0.049484     -0.054013     -0.215872 
 C278  C    -0.032019      0.099757     -0.213959 
 C279  C     0.094211      0.008301     -0.213150 
 C280  C    -0.026716      0.102913     -0.295910 
 H281  H    -0.100380      0.105877     -0.196665 
 H282  H     0.003953      0.154061     -0.190193 
 C283  C    -0.050947     -0.050276     -0.297604 
 H284  H    -0.022830     -0.116496     -0.197504 
 H285  H    -0.116287     -0.048832     -0.195099 
 C286  C     0.095189      0.005835     -0.295071 
 H287  H     0.132870      0.063630     -0.193943 
 H288  H     0.124460     -0.050569     -0.190865 
 H289  H    -0.030235     -0.112923     -0.319618 
 H290  H    -0.117768     -0.037980     -0.316895 
 H291  H    -0.091443      0.116888     -0.318730 
 H292  H     0.017039      0.155327     -0.313452 
 H293  H     0.119933     -0.057139     -0.313444 
 N294  N     0.006373      0.019566     -0.323735 
 H295  H     0.139358      0.055635     -0.316471 
 C296  C     0.284680      0.292884      0.437290 
 C297  C     0.313709      0.320009     -0.496648 
 C298  C     0.275656      0.286131     -0.435575 
 C299  C     0.207285      0.226384     -0.441560 
 C300  C     0.179315      0.198008      0.492382 
 C301  C     0.215709      0.233549      0.431036 
 O302  O     0.304742      0.312132     -0.371091 
 C303  C     0.305961      0.248619     -0.316009 
 C304  C     0.391729      0.258149     -0.276632 
 C305  C     0.416576      0.177680     -0.233605 
 C306  C    -0.494830      0.185424     -0.196358 
 O307  O     0.183047      0.210542      0.366554 
 C308  C     0.208275      0.261072      0.306477 
 C309  C     0.147176      0.245093      0.244817 
 C310  C     0.051059      0.268472      0.259433 
 C311  C    -0.010326      0.259370      0.196135 
 H312  H     0.176925      0.201343     -0.393958 
 H313  H     0.315694      0.318723      0.390260 
 H314  H     0.206908      0.330428      0.319567 
 H315  H     0.275772      0.243472      0.292735 
 H316  H     0.249569      0.259496     -0.281466 
 H317  H     0.300513      0.182859     -0.337662 
 H318  H     0.170852      0.282994      0.199876 
 H319  H     0.152600      0.176888      0.228961 
 H320  H     0.444128      0.271242     -0.314578 
 H321  H     0.387937      0.314816     -0.241877 
 H322  H     0.364549      0.165781     -0.195293 
 H323  H     0.417731      0.120553     -0.268044 
 H324  H     0.026910      0.227830      0.302825 
 H325  H     0.047485      0.335806      0.278107 
 H326  H    -0.078852      0.267403      0.211817 
 H327  H     0.002712      0.308248      0.155644 
 H328  H    -0.003879      0.195814      0.171081 
 H329  H    -0.477426      0.124986     -0.168990 
 H330  H    -0.442311      0.199309     -0.233894 
 H331  H    -0.495123      0.237474     -0.157112 
 C332  C     0.285945     -0.280719     -0.439567 
 C333  C     0.318857     -0.308592      0.495895 
 C334  C     0.289315     -0.271059      0.432774 
 C335  C     0.223681     -0.207669      0.435218 
 C336  C     0.190237     -0.180343      0.499810 
 C337  C     0.219565     -0.218178     -0.437118 
 O338  O     0.324603     -0.297304      0.370263 
 C339  C     0.324834     -0.237844      0.312038 
 C340  C     0.407106     -0.254658      0.269358 
 C341  C     0.433294     -0.179338      0.220947 
 C342  C    -0.484689     -0.197728      0.177378 
 O343  O     0.183371     -0.193560     -0.374477 
 C344  C     0.185521     -0.253727     -0.316708 
 C345  C     0.102195     -0.242633     -0.274244 
 C346  C     0.079807     -0.321263     -0.228099 
 C347  C    -0.005266     -0.310470     -0.186683 
 H348  H     0.199024     -0.179538      0.386439 
 H349  H     0.311194     -0.308440     -0.390822 
 H350  H     0.190329     -0.320567     -0.336127 
 H351  H     0.243801     -0.240746     -0.284471 
 H352  H     0.265647     -0.248223      0.280227 
 H353  H     0.323647     -0.170578      0.330915 
 H354  H     0.108158     -0.184831     -0.240980 
 H355  H     0.047202     -0.230457     -0.310282 
 H356  H     0.461760     -0.268199      0.305431 
 H357  H     0.397857     -0.313451      0.237739 
 H358  H     0.378509     -0.164262      0.185742 
 H359  H     0.444029     -0.120607      0.252417 
 H360  H     0.074772     -0.379500     -0.261036 
 H361  H     0.134269     -0.333552     -0.191814 
 H362  H    -0.019139     -0.368470     -0.155032 
 H363  H    -0.002082     -0.255072     -0.150606 
 H364  H    -0.061267     -0.299880     -0.221874 
 H365  H    -0.467836     -0.141826      0.144235 
 H366  H    -0.428069     -0.211833      0.211102 
 H367  H    -0.493969     -0.253541      0.142400 
 N368  N    -0.499190     -0.488880     -0.177889 
 C369  C    -0.452916      0.434714     -0.206152 
 C370  C     0.411080     -0.488458     -0.206682 
 C371  C    -0.454349     -0.410176     -0.203683 
 C372  C     0.412521     -0.490361     -0.288598 
 H373  H     0.375187      0.455329     -0.185828 
 H374  H     0.377009     -0.429898     -0.187998 
 C375  C    -0.447114      0.439606     -0.287789 
 H376  H    -0.387199      0.430513     -0.182932 
 H377  H    -0.488002      0.375971     -0.189542 
 C378  C    -0.456812     -0.405791     -0.285724 
 H379  H    -0.485343     -0.352437     -0.180536 
 H380  H    -0.386314     -0.411537     -0.184640 
 H381  H    -0.378553      0.446147     -0.304421 
 H382  H    -0.471716      0.379571     -0.311729 
 H383  H     0.382422      0.449487     -0.307965 
 H384  H     0.373853     -0.436314     -0.310590 
 H385  H    -0.390360     -0.398201     -0.306898 
 N386  N    -0.496853     -0.485166     -0.314991 
 H387  H    -0.494772     -0.349140     -0.303933 
 C388  C    -0.233912     -0.328408     -0.468327 
 C389  C    -0.314465     -0.306553     -0.498459 
 C390  C    -0.327838     -0.225381      0.469490 
 C391  C    -0.257335     -0.167652      0.464925 
 C392  C    -0.176953     -0.189526      0.495058 
 C393  C    -0.163298     -0.270796     -0.473431 
 O394  O    -0.409510     -0.203919      0.445011 
 C395  C    -0.424701     -0.115585      0.423642 
 C396  C     0.478239     -0.099972      0.412488 
 C397  C     0.456937     -0.006832      0.388506 
 C398  C     0.359129      0.011366      0.378599 
 O399  O    -0.080863     -0.291235     -0.450239 
 C400  C    -0.063483     -0.379199     -0.429497 
 C401  C     0.034344     -0.392795     -0.420912 
 C402  C     0.058230     -0.484519     -0.395149 
 C403  C     0.156488      0.499238     -0.386324 
 H404  H    -0.264931     -0.104115      0.440044 
 H405  H    -0.225941     -0.391743     -0.443228 
 H406  H    -0.097467     -0.391638     -0.379697 
 H407  H    -0.089166     -0.424048     -0.469343 
 H408  H    -0.400028     -0.071209      0.464255 
 H409  H    -0.388649     -0.103353      0.374671 
 H410  H     0.067538     -0.379438     -0.470968 
 H411  H     0.059396     -0.344635     -0.383805 
 H412  H     0.454496     -0.146190      0.373290 
 H413  H     0.442455     -0.114948      0.461068 
 H414  H     0.483595      0.039140      0.426980 
 H415  H     0.491099      0.006757      0.338985 
 H416  H     0.025775     -0.496876     -0.344741 
 H417  H     0.031347      0.467664     -0.431969 
 H418  H     0.169332      0.431510     -0.371447 
 H419  H     0.192341     -0.487942     -0.435072 
 H420  H     0.184881     -0.459844     -0.345226 
 H421  H     0.347404      0.079815      0.365280 
 H422  H     0.331120     -0.027766      0.336173 
 H423  H     0.322106     -0.002763      0.426561 
loop_  
_geom_bond_atom_site_label_1  
_geom_bond_atom_site_label_2  
Cu0   Cu1 
Cu0   O4 
Cu0   O7 
Cu0   O10 
Cu0   O13 
Cu0   N82 
Cu1   O2 
Cu1   O5 
Cu1   O8 
Cu1   O11 
Cu1   N276 
O2   C3 
C3   O4 
C3   C32 
O5   C6 
C6   O7 
C6   C85 
O8   C9 
C9   O10 
C9   C177 
O11   C12 
C12   O13 
C12   C121 
Cu14   Cu15 
Cu14   O18 
Cu14   O21 
Cu14   O24 
Cu14   O27 
Cu14   N174 
Cu15   O16 
Cu15   O19 
Cu15   O22 
Cu15   O25 
Cu15   N368 
O16   C17 
C17   O18 
C17   C124 
O19   C20 
C20   O21 
C20   C180 
O22   C23 
C23   O24 
C23   C88 
O25   C26 
C26   O27 
C26   C29 
C28   C29 
C28   C33 
C28   H45 
C29   C30 
C30   C31 
C30   O34 
C31   C32 
C31   H44 
C32   C33 
C33   O39 
O34   C35 
C35   C36 
C35   H48 
C35   H49 
C36   C37 
C36   H52 
C36   H53 
C37   C38 
C37   H54 
C37   H55 
C38   H61 
C38   H62 
C38   H63 
O39   C40 
C40   C41 
C40   H46 
C40   H47 
C41   C42 
C41   H50 
C41   H51 
C42   C43 
C42   H56 
C42   H57 
C43   H58 
C43   H59 
C43   H60 
N64   C65 
N64   C66 
N64   C67 
N64   Cu213 
C65   C71 
C65   H72 
C65   H73 
C66   C68 
C66   H69 
C66   H70 
C67   C74 
C67   H75 
C67   H76 
C68   H79 
C68   H80 
C68   N82 
C71   H77 
C71   H78 
C71   N82 
C74   H81 
C74   N82 
C74   H83 
C84   C85 
C84   C89 
C84   H101 
C85   C86 
C86   C87 
C86   O90 
C87   C88 
C87   H100 
C88   C89 
C89   O95 
O90   C91 
C91   C92 
C91   H104 
C91   H105 
C92   C93 
C92   H108 
C92   H109 
C93   C94 
C93   H110 
C93   H111 
C94   H117 
C94   H118 
C94   H119 
O95   C96 
C96   C97 
C96   H102 
C96   H103 
C97   C98 
C97   H106 
C97   H107 
C98   C99 
C98   H112 
C98   H113 
C99   H114 
C99   H115 
C99   H116 
C120   C121 
C120   C125 
C120   H137 
C121   C122 
C122   C123 
C122   O126 
C123   C124 
C123   H136 
C124   C125 
C125   O131 
O126   C127 
C127   C128 
C127   H140 
C127   H141 
C128   C129 
C128   H144 
C128   H145 
C129   C130 
C129   H146 
C129   H147 
C130   H153 
C130   H154 
C130   H155 
O131   C132 
C132   C133 
C132   H138 
C132   H139 
C133   C134 
C133   H142 
C133   H143 
C134   C135 
C134   H148 
C134   H149 
C135   H150 
C135   H151 
C135   H152 
N156   C157 
N156   C158 
N156   C159 
N156   Cu227 
C157   C163 
C157   H164 
C157   H165 
C158   C160 
C158   H161 
C158   H162 
C159   C166 
C159   H167 
C159   H168 
C160   H171 
C160   H172 
C160   N174 
C163   H169 
C163   H170 
C163   N174 
C166   H173 
C166   N174 
C166   H175 
C176   C177 
C176   C181 
C176   H193 
C177   C178 
C178   C179 
C178   O182 
C179   C180 
C179   H192 
C180   C181 
C181   O187 
O182   C183 
C183   C184 
C183   H196 
C183   H197 
C184   C185 
C184   H200 
C184   H201 
C185   C186 
C185   H202 
C185   H203 
C186   H209 
C186   H210 
C186   H211 
O187   C188 
C188   C189 
C188   H194 
C188   H195 
C189   C190 
C189   H198 
C189   H199 
C190   C191 
C190   H204 
C190   H205 
C191   H206 
C191   H207 
C191   H208 
Cu212   Cu213 
Cu212   O216 
Cu212   O219 
Cu212   O222 
Cu212   O225 
Cu212   N294 
Cu213   O214 
Cu213   O217 
Cu213   O220 
Cu213   O223 
O214   C215 
C215   O216 
C215   C241 
O217   C218 
C218   O219 
C218   C300 
O220   C221 
C221   O222 
C221   C392 
O223   C224 
C224   O225 
C224   C336 
Cu226   Cu227 
Cu226   O230 
Cu226   O233 
Cu226   O236 
Cu226   O239 
Cu226   N386 
Cu227   O228 
Cu227   O231 
Cu227   O234 
Cu227   O237 
O228   C229 
C229   O230 
C229   C333 
O231   C232 
C232   O233 
C232   C389 
O234   C235 
C235   O236 
C235   C297 
O237   C238 
C238   O239 
C238   C244 
C240   C241 
C240   C245 
C240   H257 
C241   C242 
C242   C243 
C242   O246 
C243   C244 
C243   H256 
C244   C245 
C245   O251 
O246   C247 
C247   C248 
C247   H260 
C247   H261 
C248   C249 
C248   H264 
C248   H265 
C249   C250 
C249   H266 
C249   H267 
C250   H273 
C250   H274 
C250   H275 
O251   C252 
C252   C253 
C252   H258 
C252   H259 
C253   C254 
C253   H262 
C253   H263 
C254   C255 
C254   H268 
C254   H269 
C255   H270 
C255   H271 
C255   H272 
N276   C277 
N276   C278 
N276   C279 
C277   C283 
C277   H284 
C277   H285 
C278   C280 
C278   H281 
C278   H282 
C279   C286 
C279   H287 
C279   H288 
C280   H291 
C280   H292 
C280   N294 
C283   H289 
C283   H290 
C283   N294 
C286   H293 
C286   N294 
C286   H295 
C296   C297 
C296   C301 
C296   H313 
C297   C298 
C298   C299 
C298   O302 
C299   C300 
C299   H312 
C300   C301 
C301   O307 
O302   C303 
C303   C304 
C303   H316 
C303   H317 
C304   C305 
C304   H320 
C304   H321 
C305   C306 
C305   H322 
C305   H323 
C306   H329 
C306   H330 
C306   H331 
O307   C308 
C308   C309 
C308   H314 
C308   H315 
C309   C310 
C309   H318 
C309   H319 
C310   C311 
C310   H324 
C310   H325 
C311   H326 
C311   H327 
C311   H328 
C332   C333 
C332   C337 
C332   H349 
C333   C334 
C334   C335 
C334   O338 
C335   C336 
C335   H348 
C336   C337 
C337   O343 
O338   C339 
C339   C340 
C339   H352 
C339   H353 
C340   C341 
C340   H356 
C340   H357 
C341   C342 
C341   H358 
C341   H359 
C342   H365 
C342   H366 
C342   H367 
O343   C344 
C344   C345 
C344   H350 
C344   H351 
C345   C346 
C345   H354 
C345   H355 
C346   C347 
C346   H360 
C346   H361 
C347   H362 
C347   H363 
C347   H364 
N368   C369 
N368   C370 
N368   C371 
C369   C375 
C369   H376 
C369   H377 
C370   C372 
C370   H373 
C370   H374 
C371   C378 
C371   H379 
C371   H380 
C372   H383 
C372   H384 
C372   N386 
C375   H381 
C375   H382 
C375   N386 
C378   H385 
C378   N386 
C378   H387 
C388   C389 
C388   C393 
C388   H405 
C389   C390 
C390   C391 
C390   O394 
C391   C392 
C391   H404 
C392   C393 
C393   O399 
O394   C395 
C395   C396 
C395   H408 
C395   H409 
C396   C397 
C396   H412 
C396   H413 
C397   C398 
C397   H414 
C397   H415 
C398   H421 
C398   H422 
C398   H423 
O399   C400 
C400   C401 
C400   H406 
C400   H407 
C401   C402 
C401   H410 
C401   H411 
C402   C403 
C402   H416 
C402   H417 
C403   H418 
C403   H419 
C403   H420 
  
#END  
