data_
_symmetry_cell_setting           triclinic 
_symmetry_space_group_name_H-M   'P 1' 
_symmetry_Int_Tables_number      1 
loop_ 
_symmetry_equiv_pos_site_id 
_symmetry_equiv_pos_as_xyz 
1 x,y,z 
_cell_length_a             15.412978        
_cell_length_b             15.455430        
_cell_length_c             19.028346        
_cell_angle_alpha          91.579294        
_cell_angle_beta           90.892730        
_cell_angle_gamma          90.177977        
loop_  
_atom_site_label   
_atom_site_type_symbol  
_atom_site_fract_x  
_atom_site_fract_y  
_atom_site_fract_z 
 Cu0  Cu     0.001860     -0.003798      0.071876 
 Cu1  Cu     0.001545     -0.005138     -0.064991 
 O2  O    -0.088575      0.087501     -0.055008 
 C3  C    -0.119147      0.110129      0.004586 
 O4  O    -0.097859      0.077205      0.062964 
 O5  O     0.095384      0.081746     -0.050819 
 C6  C     0.116120      0.115396      0.008940 
 O7  O     0.081345      0.097867      0.067127 
 O8  O    -0.091911     -0.093831     -0.060300 
 C9  C    -0.113653     -0.124701     -0.001776 
 O10  O    -0.078648     -0.104611      0.057665 
 O11  O     0.088828     -0.098290     -0.056103 
 C12  C     0.120551     -0.120112      0.002876 
 O13  O     0.102221     -0.084528      0.062069 
 Cu14  Cu    -0.497059      0.495983      0.074508 
 Cu15  Cu     0.496431      0.493013     -0.062221 
 O16  O     0.394958     -0.428690     -0.049385 
 C17  C     0.376835     -0.394305      0.010295 
 O18  O     0.413744     -0.412412      0.068336 
 O19  O    -0.423875     -0.404769     -0.052874 
 C20  C    -0.386242     -0.384736      0.005538 
 O21  O    -0.404263     -0.416558      0.064526 
 O22  O     0.418621      0.390584     -0.052488 
 C23  C     0.386210      0.373743      0.006795 
 O24  O     0.409170      0.408095      0.065815 
 O25  O    -0.402346      0.413804     -0.055740 
 C26  C    -0.377918      0.382200      0.002370 
 O27  O    -0.406452      0.404934      0.062543 
 C28  C    -0.237717      0.190890     -0.055468 
 C29  C    -0.185754      0.181220      0.004934 
 C30  C    -0.194761      0.238007      0.063318 
 C31  C    -0.257562      0.303510      0.061307 
 C32  C    -0.310036      0.312479      0.001187 
 C33  C    -0.301109      0.255788     -0.057189 
 O34  O    -0.141454      0.227437      0.120639 
 C35  C    -0.122596      0.300889      0.165934 
 C36  C    -0.045070      0.277611      0.211987 
 C37  C    -0.009265      0.353287      0.257645 
 C38  C     0.073833      0.329994      0.298165 
 O39  O    -0.354792      0.266719     -0.114217 
 C40  C    -0.381408      0.192596     -0.156163 
 C41  C    -0.463514      0.218637     -0.195732 
 C42  C     0.494099      0.146932     -0.242195 
 C43  C     0.409368      0.174367     -0.278554 
 H44  H    -0.266229      0.346723      0.106991 
 H45  H    -0.228865      0.148791     -0.101618 
 H46  H    -0.329284      0.174785     -0.192702 
 H47  H    -0.393752      0.137657     -0.121924 
 H48  H    -0.107763      0.357090      0.133709 
 H49  H    -0.179525      0.316158      0.198271 
 H50  H     0.488974      0.241718     -0.156907 
 H51  H    -0.448003      0.273781     -0.228699 
 H52  H    -0.063564      0.225045      0.246625 
 H53  H     0.006961      0.251928      0.178306 
 H54  H     0.003554      0.408682      0.224204 
 H55  H    -0.059086      0.374791      0.295073 
 H56  H    -0.459877      0.125830     -0.282702 
 H57  H     0.481202      0.090409     -0.210060 
 H58  H     0.379543      0.119764     -0.308370 
 H59  H     0.361618      0.198193     -0.240382 
 H60  H     0.420614      0.225892     -0.316048 
 H61  H     0.099498      0.386238      0.328406 
 H62  H     0.062017      0.278103      0.335304 
 H63  H     0.125065      0.307770      0.262466 
 N64  N     0.020736     -0.009603      0.322950 
 C65  C     0.019815     -0.099123      0.293039 
 C66  C    -0.057647      0.035443      0.297619 
 C67  C     0.097319      0.035680      0.295675 
 C68  C    -0.063244      0.031139      0.215582 
 H69  H    -0.115616      0.006458      0.320686 
 H70  H    -0.054831      0.103318      0.317015 
 C71  C     0.021026     -0.098606      0.210953 
 H72  H     0.075982     -0.134864      0.313893 
 H73  H    -0.038746     -0.132620      0.310951 
 C74  C     0.092149      0.039452      0.213754 
 H75  H     0.101181      0.101647      0.319109 
 H76  H     0.156098      0.001481      0.313079 
 H77  H     0.081265     -0.128196      0.191272 
 H78  H    -0.033174     -0.137353      0.188171 
 H79  H    -0.119918     -0.007367      0.197518 
 H80  H    -0.071740      0.096199      0.194524 
 H81  H     0.151350      0.012693      0.189756 
 N82  N     0.015479     -0.008989      0.185861 
 H83  H     0.087231      0.107249      0.197600 
 C84  C     0.328006      0.228465     -0.029013 
 C85  C     0.315064      0.307616      0.006879 
 C86  C     0.238402      0.325012      0.043551 
 C87  C     0.174698      0.260174      0.046780 
 C88  C     0.187605      0.181203      0.010713 
 C89  C     0.264103      0.163902     -0.026030 
 O90  O     0.229928      0.406439      0.073067 
 C91  C     0.148782      0.433169      0.102134 
 C92  C     0.152904     -0.469056      0.114315 
 C93  C     0.072509     -0.431031      0.150465 
 C94  C     0.073540     -0.331848      0.156200 
 O95  O     0.271245      0.082418     -0.055474 
 C96  C     0.346599      0.056920     -0.093636 
 C97  C     0.337370     -0.040034     -0.108453 
 C98  C     0.408789     -0.079380     -0.154650 
 C99  C     0.403679     -0.178479     -0.160850 
 H100  H     0.114613      0.271631      0.075182 
 H101  H     0.388061      0.216638     -0.057311 
 H102  H     0.348830      0.093247     -0.142539 
 H103  H     0.405814      0.071409     -0.062229 
 H104  H     0.095079      0.415641      0.065484 
 H105  H     0.139138      0.399563      0.151716 
 H106  H     0.336430     -0.073271     -0.058005 
 H107  H     0.273810     -0.053636     -0.133614 
 H108  H     0.211197     -0.451896      0.146007 
 H109  H     0.161227     -0.438106      0.063353 
 H110  H     0.013701     -0.452733      0.121431 
 H111  H     0.067897     -0.457206      0.203505 
 H112  H     0.404026     -0.052186     -0.207443 
 H113  H     0.472837     -0.059911     -0.133207 
 H114  H     0.456506     -0.205023     -0.192862 
 H115  H     0.408822     -0.207808     -0.108963 
 H116  H     0.341920     -0.200100     -0.185215 
 H117  H     0.015729     -0.306966      0.182972 
 H118  H     0.130852     -0.307903      0.185938 
 H119  H     0.074621     -0.303181      0.103992 
 C120  C     0.261517     -0.312896     -0.052057 
 C121  C     0.307125     -0.326354      0.010873 
 C122  C     0.290144     -0.274528      0.070916 
 C123  C     0.228117     -0.208745      0.067328 
 C124  C     0.183849     -0.194045      0.003959 
 C125  C     0.198783     -0.247600     -0.055645 
 O126  O     0.331957     -0.289094      0.133232 
 C127  C     0.381413     -0.219237      0.165335 
 C128  C     0.463855     -0.202878      0.124159 
 C129  C     0.452881     -0.140246      0.063323 
 C130  C    -0.469693     -0.140979      0.013906 
 O131  O     0.154844     -0.232672     -0.117173 
 C132  C     0.123465     -0.303825     -0.160991 
 C133  C     0.033723     -0.333173     -0.138259 
 C134  C     0.032093     -0.378921     -0.067546 
 C135  C    -0.057291     -0.416407     -0.050908 
 H136  H     0.215295     -0.169439      0.114488 
 H137  H     0.276298     -0.351605     -0.099133 
 H138  H     0.120057     -0.280083     -0.214978 
 H139  H     0.168954     -0.358513     -0.161745 
 H140  H     0.341740     -0.160323      0.170173 
 H141  H     0.397899     -0.238915      0.219045 
 H142  H    -0.009988     -0.276858     -0.135661 
 H143  H     0.006278     -0.377225     -0.179369 
 H144  H    -0.485728     -0.176766      0.160458 
 H145  H     0.489509     -0.264903      0.103628 
 H146  H     0.393950     -0.156595      0.032459 
 H147  H     0.443039     -0.074268      0.084960 
 H148  H     0.080587     -0.431115     -0.067618 
 H149  H     0.051846     -0.332868     -0.025076 
 H150  H    -0.078772     -0.464236     -0.091381 
 H151  H    -0.055927     -0.448920     -0.000302 
 H152  H    -0.106697     -0.365339     -0.047876 
 H153  H    -0.408158     -0.129778      0.042565 
 H154  H    -0.464957     -0.203751     -0.014276 
 H155  H    -0.476204     -0.090786     -0.025478 
 N156  N     0.494921     -0.499393      0.324641 
 C157  C    -0.458570      0.425329      0.294542 
 C158  C     0.404042      0.497323      0.298231 
 C159  C    -0.464090     -0.419785      0.298970 
 C160  C     0.400950      0.496788      0.216069 
 H161  H     0.372005      0.439034      0.317814 
 H162  H     0.368683     -0.446501      0.320251 
 C163  C    -0.460929      0.426482      0.212627 
 H164  H    -0.390790      0.426405      0.314082 
 H165  H    -0.488885      0.365713      0.313365 
 C166  C    -0.468871     -0.418341      0.217045 
 H167  H    -0.496493     -0.362685      0.322500 
 H168  H    -0.395863     -0.417296      0.317194 
 H169  H    -0.394337      0.429306      0.192480 
 H170  H    -0.491048      0.366661      0.190563 
 H171  H     0.369004      0.437426      0.194976 
 H172  H     0.362610     -0.448328      0.196938 
 H173  H    -0.403417     -0.411627      0.195459 
 N174  N     0.489634     -0.498211      0.187746 
 H175  H     0.493628     -0.362204      0.199481 
 C176  C    -0.307031     -0.269308     -0.056290 
 C177  C    -0.314445     -0.318814      0.003924 
 C178  C    -0.257086     -0.304381      0.061257 
 C179  C    -0.194328     -0.239080      0.058718 
 C180  C    -0.187173     -0.189023     -0.001248 
 C181  C    -0.246071     -0.202136     -0.058070 
 O182  O    -0.260896     -0.349446      0.121798 
 C183  C    -0.211254     -0.427801      0.121926 
 C184  C    -0.207509     -0.461697      0.196323 
 C185  C    -0.163486     -0.399543      0.250370 
 C186  C    -0.166539     -0.431547      0.325839 
 O187  O    -0.247111     -0.155406     -0.117976 
 C188  C    -0.272997     -0.066400     -0.110415 
 C189  C    -0.266135     -0.025509     -0.182038 
 C190  C    -0.349644     -0.025208     -0.226407 
 C191  C    -0.334653      0.007820     -0.300577 
 H192  H    -0.150476     -0.230003      0.103904 
 H193  H    -0.350730     -0.279055     -0.101513 
 H194  H    -0.339833     -0.063550     -0.090868 
 H195  H    -0.231388     -0.031846     -0.071309 
 H196  H    -0.242266     -0.475517      0.085357 
 H197  H    -0.145562     -0.414740      0.102736 
 H198  H    -0.242346      0.041342     -0.175294 
 H199  H    -0.217109     -0.060624     -0.212754 
 H200  H    -0.273675     -0.476207      0.213446 
 H201  H    -0.172664      0.476324      0.195910 
 H202  H    -0.095446     -0.389729      0.235749 
 H203  H    -0.194287     -0.335564      0.248084 
 H204  H    -0.377145     -0.090676     -0.229690 
 H205  H    -0.398322      0.014737     -0.199450 
 H206  H    -0.395002      0.006398     -0.332057 
 H207  H    -0.309930      0.074649     -0.299220 
 H208  H    -0.286963     -0.032259     -0.328796 
 H209  H    -0.134786     -0.385167      0.362871 
 H210  H    -0.233644     -0.440174      0.343192 
 H211  H    -0.133389     -0.493952      0.330737 
 Cu212  Cu     0.019585     -0.007608     -0.427512 
 Cu213  Cu     0.014639     -0.006682      0.436181 
 O214  O    -0.085813      0.072385      0.452367 
 C215  C    -0.100960      0.109258     -0.488295 
 O216  O    -0.062370      0.091766     -0.430752 
 O217  O     0.091413      0.096188      0.448024 
 C218  C     0.130761      0.112586     -0.493805 
 O219  O     0.119271      0.073702     -0.436479 
 O220  O    -0.065740     -0.107418      0.441408 
 C221  C    -0.099458     -0.126472      0.499728 
 O222  O    -0.078717     -0.091849     -0.440656 
 O223  O     0.118045     -0.084695      0.443215 
 C224  C     0.136498     -0.121909     -0.499489 
 O225  O     0.100233     -0.106479     -0.440799 
 Cu226  Cu    -0.484815      0.489856     -0.426470 
 Cu227  Cu    -0.487499      0.492052      0.437108 
 O228  O     0.434631     -0.406196      0.447899 
 C229  C     0.398586     -0.390090     -0.493398 
 O230  O     0.415610     -0.428252     -0.436350 
 O231  O    -0.387490     -0.426639      0.450085 
 C232  C    -0.366415     -0.392861     -0.490123 
 O233  O    -0.400281     -0.412383     -0.431929 
 O234  O     0.410767      0.412340      0.445171 
 C235  C     0.397258      0.373643     -0.497684 
 O236  O     0.434423      0.390422     -0.438684 
 O237  O    -0.407452      0.390656      0.443310 
 C238  C    -0.371360      0.370897     -0.498640 
 O239  O    -0.387970      0.406516     -0.439124 
 C240  C    -0.261132      0.287117     -0.433602 
 C241  C    -0.302951      0.301257     -0.498149 
 C242  C    -0.279572      0.252476      0.441622 
 C243  C    -0.212657      0.191531      0.447193 
 C244  C    -0.170444      0.177757     -0.488323 
 C245  C    -0.194006      0.226306     -0.427946 
 O246  O    -0.321845      0.265307      0.378797 
 C247  C    -0.310480      0.203462      0.321879 
 C248  C    -0.371401      0.227441      0.261997 
 C249  C    -0.369921      0.164090      0.198532 
 C250  C    -0.431007      0.190112      0.138355 
 O251  O    -0.151828      0.214082     -0.364844 
 C252  C    -0.166968      0.274999     -0.307834 
 C253  C    -0.106349      0.256043     -0.246392 
 C254  C    -0.113746      0.322049     -0.184792 
 C255  C    -0.052000      0.304096     -0.122882 
 H256  H    -0.193513      0.154009      0.400594 
 H257  H    -0.280507      0.324973     -0.387211 
 H258  H    -0.155554      0.341127     -0.326074 
 H259  H    -0.235001      0.269729     -0.291400 
 H260  H    -0.242661      0.205095      0.304429 
 H261  H    -0.325137      0.137941      0.340012 
 H262  H    -0.120173      0.190815     -0.227520 
 H263  H    -0.039067      0.255081     -0.264942 
 H264  H    -0.438151      0.231523      0.281675 
 H265  H    -0.353708      0.292298      0.244468 
 H266  H    -0.303246      0.159523      0.178832 
 H267  H    -0.387654      0.099039      0.215724 
 H268  H    -0.101053      0.387540     -0.203685 
 H269  H    -0.181015      0.322666     -0.166084 
 H270  H    -0.061052      0.351431     -0.079460 
 H271  H    -0.063281      0.239530     -0.102077 
 H272  H     0.016342      0.307156     -0.138175 
 H273  H    -0.428591      0.143092      0.094029 
 H274  H    -0.498669      0.194651      0.155366 
 H275  H    -0.413252      0.253542      0.118275 
 N276  N     0.029574     -0.000164     -0.177528 
 C277  C     0.077047     -0.075846     -0.206155 
 C278  C    -0.059621     -0.004652     -0.206450 
 C279  C     0.071485      0.079151     -0.202762 
 C280  C    -0.060142     -0.003074     -0.288223 
 H281  H    -0.089427     -0.065233     -0.189292 
 H282  H    -0.097629      0.049832     -0.184814 
 C283  C     0.076540     -0.076562     -0.288206 
 H284  H     0.143975     -0.074189     -0.185010 
 H285  H     0.046306     -0.135183     -0.187360 
 C286  C     0.072741      0.078318     -0.284919 
 H287  H     0.036205      0.136033     -0.181975 
 H288  H     0.138044      0.083489     -0.180782 
 H289  H     0.143430     -0.075930     -0.308007 
 H290  H     0.045245     -0.136076     -0.309780 
 H291  H    -0.094037     -0.060692     -0.310559 
 H292  H    -0.095941      0.053839     -0.306646 
 H293  H     0.140137      0.080098     -0.303483 
 N294  N     0.029525     -0.000451     -0.314576 
 H295  H     0.040159      0.135860     -0.305688 
 C296  C     0.284990      0.156195     -0.482984 
 C297  C     0.198877      0.181481     -0.493337 
 C298  C     0.176731      0.267856      0.494945 
 C299  C     0.243144      0.329795      0.490892 
 C300  C     0.329347      0.304485     -0.498979 
 C301  C     0.351504      0.218021     -0.487183 
 O302  O     0.090410      0.287510      0.488580 
 C303  C     0.065980      0.376835      0.492921 
 C304  C    -0.032301      0.382534      0.495160 
 C305  C    -0.064894      0.476331      0.496580 
 C306  C    -0.163800      0.483453      0.499732 
 O307  O     0.437691      0.197485     -0.480634 
 C308  C     0.460705      0.107612     -0.483977 
 C309  C    -0.441495      0.099245     -0.490179 
 C310  C    -0.411953      0.004535     -0.496716 
 C311  C    -0.313432     -0.005786      0.498469 
 H312  H     0.228494      0.397688      0.481519 
 H313  H     0.299325      0.088289     -0.473280 
 H314  H     0.438337      0.076478     -0.436062 
 H315  H     0.428101      0.076035      0.470100 
 H316  H     0.095339      0.407217     -0.459317 
 H317  H     0.090665      0.410393      0.446983 
 H318  H    -0.419930      0.134377      0.463585 
 H319  H    -0.409322      0.131029     -0.444165 
 H320  H    -0.060950      0.347274      0.449255 
 H321  H    -0.055603      0.349468     -0.458122 
 H322  H    -0.035789     -0.488170     -0.457903 
 H323  H    -0.041931     -0.491032      0.449597 
 H324  H    -0.435284     -0.030996     -0.451334 
 H325  H    -0.443016     -0.026484      0.456533 
 H326  H    -0.295625     -0.074467      0.496243 
 H327  H    -0.288054      0.023882      0.451135 
 H328  H    -0.279629      0.024076     -0.455671 
 H329  H    -0.183967     -0.448599      0.498602 
 H330  H    -0.195683      0.449340      0.454879 
 H331  H    -0.188979      0.456348     -0.451820 
 C332  C     0.337547     -0.255792      0.456879 
 C333  C     0.331270     -0.319876     -0.492838 
 C334  C     0.262385     -0.319795     -0.445443 
 C335  C     0.199776     -0.254252     -0.448484 
 C336  C     0.205549     -0.190481     -0.499238 
 C337  C     0.274630     -0.190404      0.453396 
 O338  O     0.259483     -0.384559     -0.397957 
 C339  C     0.178376     -0.408117     -0.368060 
 C340  C     0.194181     -0.492883     -0.331197 
 C341  C     0.113052      0.468273     -0.298360 
 C342  C     0.131081      0.380995     -0.264771 
 O343  O     0.277996     -0.125822      0.405581 
 C344  C     0.356244     -0.112697      0.367530 
 C345  C     0.340112     -0.039520      0.317276 
 C346  C     0.419767     -0.016120      0.274156 
 C347  C     0.398643      0.047157      0.215750 
 H348  H     0.146436     -0.253304     -0.411399 
 H349  H     0.391677     -0.257220      0.420525 
 H350  H     0.409615     -0.096802      0.404961 
 H351  H     0.373016     -0.172273      0.337783 
 H352  H     0.157471     -0.357005     -0.330626 
 H353  H     0.128477     -0.415719     -0.409947 
 H354  H     0.286558     -0.058574      0.281033 
 H355  H     0.317948      0.018466      0.346825 
 H356  H     0.221393      0.459620     -0.369072 
 H357  H     0.244143     -0.482682     -0.289775 
 H358  H     0.087527     -0.486043     -0.258428 
 H359  H     0.061580      0.460027     -0.338808 
 H360  H     0.470377      0.012062      0.309422 
 H361  H     0.447832     -0.075384      0.250782 
 H362  H     0.456224      0.059658      0.184295 
 H363  H     0.347973      0.021275      0.179606 
 H364  H     0.375770      0.109565      0.237401 
 H365  H     0.072044      0.354846     -0.241723 
 H366  H     0.154177      0.332926     -0.303807 
 H367  H     0.180504      0.387071     -0.222612 
 N368  N     0.492559      0.497741     -0.176349 
 C369  C     0.433337      0.429896     -0.205687 
 C370  C     0.464385     -0.418789     -0.205075 
 C371  C    -0.418770      0.479908     -0.201751 
 C372  C     0.456325     -0.426370     -0.287078 
 H373  H     0.402143     -0.399065     -0.181911 
 H374  H    -0.487613     -0.368872     -0.188654 
 C375  C     0.442565      0.420660     -0.287290 
 H376  H     0.446447      0.368035     -0.180557 
 H377  H     0.366355      0.447844     -0.191921 
 C378  C    -0.415754      0.484377     -0.283469 
 H379  H    -0.372350     -0.473826     -0.176757 
 H380  H    -0.399339      0.414964     -0.185124 
 H381  H     0.474583      0.359382     -0.302128 
 H382  H     0.378376      0.419725     -0.313714 
 H383  H     0.387357     -0.426716     -0.303192 
 H384  H     0.485414     -0.370734     -0.312719 
 H385  H    -0.383875      0.426205     -0.305640 
 N386  N     0.495567      0.492128     -0.313755 
 H387  H    -0.376771     -0.459645     -0.299068 
 C388  C    -0.281774     -0.284703      0.445051 
 C389  C    -0.297718     -0.323124     -0.490568 
 C390  C    -0.250412     -0.296217     -0.430017 
 C391  C    -0.184487     -0.234122     -0.435567 
 C392  C    -0.168769     -0.195473     -0.499873 
 C393  C    -0.218741     -0.219405      0.440132 
 O394  O    -0.264567     -0.333824     -0.366932 
 C395  C    -0.273002     -0.277794     -0.305722 
 C396  C    -0.368112     -0.255228     -0.295068 
 C397  C    -0.411659     -0.206874     -0.356007 
 C398  C     0.496504     -0.174019     -0.340829 
 O399  O    -0.205285     -0.178549      0.378179 
 C400  C    -0.274297     -0.178880      0.326497 
 C401  C    -0.248617     -0.118097      0.268906 
 C402  C    -0.317120     -0.109495      0.210134 
 C403  C    -0.288424     -0.048821      0.152383 
 H404  H    -0.144613     -0.216981     -0.389309 
 H405  H    -0.318884     -0.305578      0.398287 
 H406  H    -0.284531     -0.244810      0.304505 
 H407  H    -0.334779     -0.157298      0.351616 
 H408  H    -0.247167     -0.313017     -0.260448 
 H409  H    -0.234142     -0.218272     -0.309312 
 H410  H    -0.236227     -0.053539      0.292880 
 H411  H    -0.187193     -0.140309      0.245851 
 H412  H    -0.403218     -0.315708     -0.286936 
 H413  H    -0.374078     -0.217778     -0.245496 
 H414  H    -0.370228     -0.152364     -0.370602 
 H415  H    -0.415406     -0.250133     -0.402782 
 H416  H    -0.331719     -0.173909      0.186558 
 H417  H    -0.377941     -0.085399      0.232974 
 H418  H    -0.340556     -0.038816      0.113522 
 H419  H    -0.269604      0.015075      0.174228 
 H420  H    -0.232253     -0.074828      0.124051 
 H421  H     0.468722     -0.141775     -0.386728 
 H422  H     0.452458     -0.227331     -0.328502 
 H423  H     0.496395     -0.127033     -0.296516 
loop_  
_geom_bond_atom_site_label_1  
_geom_bond_atom_site_label_2  
Cu0   Cu1 
Cu0   O4 
Cu0   O7 
Cu0   O10 
Cu0   O13 
Cu0   N82 
Cu1   O2 
Cu1   O5 
Cu1   O8 
Cu1   O11 
Cu1   N276 
O2   C3 
C3   O4 
C3   C29 
O5   C6 
C6   O7 
C6   C88 
O8   C9 
C9   O10 
C9   C180 
O11   C12 
C12   O13 
C12   C124 
Cu14   Cu15 
Cu14   O18 
Cu14   O21 
Cu14   O24 
Cu14   O27 
Cu14   N174 
Cu15   O16 
Cu15   O19 
Cu15   O22 
Cu15   O25 
Cu15   N368 
O16   C17 
C17   O18 
C17   C121 
O19   C20 
C20   O21 
C20   C177 
O22   C23 
C23   O24 
C23   C85 
O25   C26 
C26   O27 
C26   C32 
C28   C29 
C28   C33 
C28   H45 
C29   C30 
C30   C31 
C30   O34 
C31   C32 
C31   H44 
C32   C33 
C33   O39 
O34   C35 
C35   C36 
C35   H48 
C35   H49 
C36   C37 
C36   H52 
C36   H53 
C37   C38 
C37   H54 
C37   H55 
C38   H61 
C38   H62 
C38   H63 
O39   C40 
C40   C41 
C40   H46 
C40   H47 
C41   C42 
C41   H50 
C41   H51 
C42   C43 
C42   H56 
C42   H57 
C43   H58 
C43   H59 
C43   H60 
N64   C65 
N64   C66 
N64   C67 
N64   Cu213 
C65   C71 
C65   H72 
C65   H73 
C66   C68 
C66   H69 
C66   H70 
C67   C74 
C67   H75 
C67   H76 
C68   H79 
C68   H80 
C68   N82 
C71   H77 
C71   H78 
C71   N82 
C74   H81 
C74   N82 
C74   H83 
C84   C85 
C84   C89 
C84   H101 
C85   C86 
C86   C87 
C86   O90 
C87   C88 
C87   H100 
C88   C89 
C89   O95 
O90   C91 
C91   C92 
C91   H104 
C91   H105 
C92   C93 
C92   H108 
C92   H109 
C93   C94 
C93   H110 
C93   H111 
C94   H117 
C94   H118 
C94   H119 
O95   C96 
C96   C97 
C96   H102 
C96   H103 
C97   C98 
C97   H106 
C97   H107 
C98   C99 
C98   H112 
C98   H113 
C99   H114 
C99   H115 
C99   H116 
C120   C121 
C120   C125 
C120   H137 
C121   C122 
C122   C123 
C122   O126 
C123   C124 
C123   H136 
C124   C125 
C125   O131 
O126   C127 
C127   C128 
C127   H140 
C127   H141 
C128   C129 
C128   H144 
C128   H145 
C129   C130 
C129   H146 
C129   H147 
C130   H153 
C130   H154 
C130   H155 
O131   C132 
C132   C133 
C132   H138 
C132   H139 
C133   C134 
C133   H142 
C133   H143 
C134   C135 
C134   H148 
C134   H149 
C135   H150 
C135   H151 
C135   H152 
N156   C157 
N156   C158 
N156   C159 
N156   Cu227 
C157   C163 
C157   H164 
C157   H165 
C158   C160 
C158   H161 
C158   H162 
C159   C166 
C159   H167 
C159   H168 
C160   H171 
C160   H172 
C160   N174 
C163   H169 
C163   H170 
C163   N174 
C166   H173 
C166   N174 
C166   H175 
C176   C177 
C176   C181 
C176   H193 
C177   C178 
C178   C179 
C178   O182 
C179   C180 
C179   H192 
C180   C181 
C181   O187 
O182   C183 
C183   C184 
C183   H196 
C183   H197 
C184   C185 
C184   H200 
C184   H201 
C185   C186 
C185   H202 
C185   H203 
C186   H209 
C186   H210 
C186   H211 
O187   C188 
C188   C189 
C188   H194 
C188   H195 
C189   C190 
C189   H198 
C189   H199 
C190   C191 
C190   H204 
C190   H205 
C191   H206 
C191   H207 
C191   H208 
Cu212   Cu213 
Cu212   O216 
Cu212   O219 
Cu212   O222 
Cu212   O225 
Cu212   N294 
Cu213   O214 
Cu213   O217 
Cu213   O220 
Cu213   O223 
O214   C215 
C215   O216 
C215   C244 
O217   C218 
C218   O219 
C218   C297 
O220   C221 
C221   O222 
C221   C392 
O223   C224 
C224   O225 
C224   C336 
Cu226   Cu227 
Cu226   O230 
Cu226   O233 
Cu226   O236 
Cu226   O239 
Cu226   N386 
Cu227   O228 
Cu227   O231 
Cu227   O234 
Cu227   O237 
O228   C229 
C229   O230 
C229   C333 
O231   C232 
C232   O233 
C232   C389 
O234   C235 
C235   O236 
C235   C300 
O237   C238 
C238   O239 
C238   C241 
C240   C241 
C240   C245 
C240   H257 
C241   C242 
C242   C243 
C242   O246 
C243   C244 
C243   H256 
C244   C245 
C245   O251 
O246   C247 
C247   C248 
C247   H260 
C247   H261 
C248   C249 
C248   H264 
C248   H265 
C249   C250 
C249   H266 
C249   H267 
C250   H273 
C250   H274 
C250   H275 
O251   C252 
C252   C253 
C252   H258 
C252   H259 
C253   C254 
C253   H262 
C253   H263 
C254   C255 
C254   H268 
C254   H269 
C255   H270 
C255   H271 
C255   H272 
N276   C277 
N276   C278 
N276   C279 
C277   C283 
C277   H284 
C277   H285 
C278   C280 
C278   H281 
C278   H282 
C279   C286 
C279   H287 
C279   H288 
C280   H291 
C280   H292 
C280   N294 
C283   H289 
C283   H290 
C283   N294 
C286   H293 
C286   N294 
C286   H295 
C296   C297 
C296   C301 
C296   H313 
C297   C298 
C298   C299 
C298   O302 
C299   C300 
C299   H312 
C300   C301 
C301   O307 
O302   C303 
C303   C304 
C303   H316 
C303   H317 
C304   C305 
C304   H320 
C304   H321 
C305   C306 
C305   H322 
C305   H323 
C306   H329 
C306   H330 
C306   H331 
O307   C308 
C308   C309 
C308   H314 
C308   H315 
C309   C310 
C309   H318 
C309   H319 
C310   C311 
C310   H324 
C310   H325 
C311   H326 
C311   H327 
C311   H328 
C332   C333 
C332   C337 
C332   H349 
C333   C334 
C334   C335 
C334   O338 
C335   C336 
C335   H348 
C336   C337 
C337   O343 
O338   C339 
C339   C340 
C339   H352 
C339   H353 
C340   C341 
C340   H356 
C340   H357 
C341   C342 
C341   H358 
C341   H359 
C342   H365 
C342   H366 
C342   H367 
O343   C344 
C344   C345 
C344   H350 
C344   H351 
C345   C346 
C345   H354 
C345   H355 
C346   C347 
C346   H360 
C346   H361 
C347   H362 
C347   H363 
C347   H364 
N368   C369 
N368   C370 
N368   C371 
C369   C375 
C369   H376 
C369   H377 
C370   C372 
C370   H373 
C370   H374 
C371   C378 
C371   H379 
C371   H380 
C372   H383 
C372   H384 
C372   N386 
C375   H381 
C375   H382 
C375   N386 
C378   H385 
C378   N386 
C378   H387 
C388   C389 
C388   C393 
C388   H405 
C389   C390 
C390   C391 
C390   O394 
C391   C392 
C391   H404 
C392   C393 
C393   O399 
O394   C395 
C395   C396 
C395   H408 
C395   H409 
C396   C397 
C396   H412 
C396   H413 
C397   C398 
C397   H414 
C397   H415 
C398   H421 
C398   H422 
C398   H423 
O399   C400 
C400   C401 
C400   H406 
C400   H407 
C401   C402 
C401   H410 
C401   H411 
C402   C403 
C402   H416 
C402   H417 
C403   H418 
C403   H419 
C403   H420 
  
#END  
