data_
_symmetry_cell_setting           triclinic 
_symmetry_space_group_name_H-M   'P 1' 
_symmetry_Int_Tables_number      1 
loop_ 
_symmetry_equiv_pos_site_id 
_symmetry_equiv_pos_as_xyz 
1 x,y,z 
_cell_length_a             15.411839        
_cell_length_b             15.408352        
_cell_length_c             19.146351        
_cell_angle_alpha          90.067821        
_cell_angle_beta           89.918451        
_cell_angle_gamma          90.011390        
loop_  
_atom_site_label   
_atom_site_type_symbol  
_atom_site_fract_x  
_atom_site_fract_y  
_atom_site_fract_z 
 Cu0  Cu    -0.000854     -0.003826      0.071973 
 Cu1  Cu     0.000503     -0.003955     -0.064155 
 O2  O    -0.083672      0.093415     -0.056561 
 C3  C    -0.117477      0.113668      0.002008 
 O4  O    -0.097744      0.080516      0.060804 
 O5  O     0.097475      0.080289     -0.052807 
 C6  C     0.117268      0.113519      0.006012 
 O7  O     0.083496      0.093382      0.064584 
 O8  O    -0.096598     -0.088346     -0.056713 
 C9  C    -0.117484     -0.121428      0.001914 
 O10  O    -0.085002     -0.100968      0.060834 
 O11  O     0.084523     -0.101212     -0.053215 
 C12  C     0.117000     -0.121571      0.005689 
 O13  O     0.096128     -0.088360      0.064333 
 Cu14  Cu    -0.499718      0.496224      0.071958 
 Cu15  Cu     0.499370      0.495996     -0.064172 
 O16  O     0.402327     -0.419788     -0.052912 
 C17  C     0.382358     -0.386489      0.005888 
 O18  O     0.415975     -0.406547      0.064455 
 O19  O    -0.416432     -0.406664     -0.056827 
 C20  C    -0.382846     -0.386367      0.001741 
 O21  O    -0.402809     -0.419452      0.060559 
 O22  O     0.415302      0.398784     -0.053046 
 C23  C     0.382643      0.378445      0.005872 
 O24  O     0.403333      0.411667      0.064509 
 O25  O    -0.403538      0.411605     -0.056566 
 C26  C    -0.382850      0.378568      0.002073 
 O27  O    -0.415551      0.399067      0.060976 
 C28  C    -0.209081      0.222874     -0.061078 
 C29  C    -0.273359      0.286905     -0.061072 
 C30  C    -0.314109      0.309714      0.001845 
 C31  C    -0.291436      0.269141      0.064722 
 C32  C    -0.227232      0.205098      0.064709 
 C33  C    -0.186394      0.182344      0.001825 
 H34  H    -0.291052      0.318700     -0.109949 
 H35  H    -0.323412      0.286847      0.113635 
 H36  H    -0.209622      0.173320      0.113619 
 H37  H    -0.177044      0.205171     -0.109956 
 N38  N     0.002386     -0.001884      0.185755 
 C39  C     0.092221     -0.002310      0.213053 
 C40  C    -0.041892      0.076673      0.212531 
 C41  C    -0.043138     -0.078947      0.213729 
 C42  C     0.043457      0.075196     -0.204588 
 H43  H    -0.009369      0.134785      0.191372 
 H44  H    -0.109093      0.077619      0.192859 
 C45  C     0.040330     -0.080388     -0.206108 
 H46  H     0.127380      0.054429      0.192291 
 H47  H     0.126226     -0.060379      0.193417 
 C48  C    -0.092832     -0.000056     -0.205128 
 H49  H    -0.011091     -0.138074      0.193865 
 H50  H    -0.110177     -0.079760      0.193639 
 H51  H     0.006641     -0.138610     -0.186359 
 H52  H     0.107338     -0.083097     -0.186072 
 H53  H     0.110719      0.074195     -0.185043 
 H54  H     0.012684      0.134182     -0.183211 
 H55  H    -0.128466     -0.057096     -0.185488 
 N56  N    -0.002971     -0.002110     -0.177927 
 H57  H    -0.126311      0.057694     -0.184298 
 C58  C     0.291070      0.268963     -0.056772 
 C59  C     0.226862      0.204906     -0.056736 
 C60  C     0.186216      0.182175      0.006194 
 C61  C     0.209096      0.222718      0.069125 
 C62  C     0.273376      0.286768      0.069095 
 C63  C     0.313925      0.309561      0.006130 
 H64  H     0.209087      0.173115     -0.105666 
 H65  H     0.177205      0.205011      0.118034 
 H66  H     0.291226      0.318587      0.117989 
 H67  H     0.322894      0.286673     -0.105720 
 C68  C     0.290424     -0.277153      0.068939 
 C69  C     0.226159     -0.213110      0.068891 
 C70  C     0.185702     -0.190462      0.005947 
 C71  C     0.208642     -0.231221     -0.056915 
 C72  C     0.272831     -0.295280     -0.056860 
 C73  C     0.313396     -0.317854      0.006046 
 H74  H     0.208256     -0.181177      0.117761 
 H75  H     0.176891     -0.213640     -0.105847 
 H76  H     0.290649     -0.327195     -0.105762 
 H77  H     0.322242     -0.294728      0.117834 
 N78  N     0.497039      0.497947      0.185751 
 C79  C     0.407171      0.499427      0.213162 
 C80  C    -0.459161      0.419936      0.213670 
 C81  C    -0.457019     -0.424466      0.212470 
 C82  C    -0.407805      0.496202     -0.205479 
 H83  H    -0.492414      0.361498      0.193820 
 H84  H    -0.392109      0.417727      0.193528 
 C85  C     0.455397      0.422161     -0.205982 
 H86  H     0.371937      0.442113      0.193543 
 H87  H     0.373291     -0.443082      0.192472 
 C88  C     0.459625     -0.422268     -0.204465 
 H89  H    -0.389781     -0.424976      0.192707 
 H90  H    -0.488232     -0.365671      0.191348 
 H91  H     0.388395      0.422544     -0.185645 
 H92  H     0.486402      0.362429     -0.186404 
 H93  H    -0.374886      0.437514     -0.186025 
 H94  H    -0.371593     -0.447713     -0.184708 
 H95  H     0.493191     -0.364790     -0.183210 
 N96  N    -0.497603      0.498326     -0.177960 
 H97  H     0.392436     -0.420095     -0.184681 
 C98  C    -0.226510     -0.213297     -0.061332 
 C99  C    -0.290784     -0.277354     -0.061372 
 C100  C    -0.313910     -0.317700      0.001560 
 C101  C    -0.273515     -0.294767      0.064497 
 C102  C    -0.209311     -0.230706      0.064542 
 C103  C    -0.186210     -0.190305      0.001642 
 H104  H    -0.322474     -0.295228     -0.110287 
 H105  H    -0.291479     -0.326402      0.113428 
 H106  H    -0.177683     -0.212844      0.113496 
 H107  H    -0.208461     -0.181637     -0.110225 
 Cu108  Cu    -0.000031      0.002094     -0.428018 
 Cu109  Cu    -0.000951      0.001851      0.435853 
 O110  O    -0.085122      0.099002      0.446864 
 C111  C    -0.117833      0.119494     -0.494235 
 O112  O    -0.097148      0.086459     -0.435594 
 O113  O     0.095992      0.086418      0.443309 
 C114  C     0.116672      0.119658     -0.498059 
 O115  O     0.084008      0.099330     -0.439140 
 O116  O    -0.097855     -0.082480      0.447241 
 C117  C    -0.117795     -0.115576     -0.493940 
 O118  O    -0.084190     -0.095283     -0.435379 
 O119  O     0.083364     -0.095369      0.443334 
 C120  C     0.116991     -0.115413     -0.498098 
 O121  O     0.097032     -0.082099     -0.439302 
 Cu122  Cu     0.498824     -0.497957     -0.428035 
 Cu123  Cu    -0.499809     -0.498098      0.435838 
 O124  O     0.403217     -0.413553      0.443486 
 C125  C     0.382349     -0.380331     -0.497874 
 O126  O     0.414828     -0.400680     -0.438968 
 O127  O    -0.415654     -0.400966      0.447007 
 C128  C    -0.383164     -0.380511     -0.494075 
 O129  O    -0.404048     -0.413593     -0.435445 
 O130  O     0.415827      0.404707      0.443207 
 C131  C     0.382045      0.384584     -0.498222 
 O132  O     0.401833      0.417823     -0.439405 
 O133  O    -0.402928      0.417549      0.446989 
 C134  C    -0.383217      0.384387     -0.494214 
 O135  O    -0.417036      0.404641     -0.435651 
 C136  C    -0.209241      0.228913      0.443102 
 C137  C    -0.273448      0.292952      0.443104 
 C138  C    -0.314306      0.315703     -0.494021 
 C139  C    -0.291639      0.275167     -0.431114 
 C140  C    -0.227356      0.211141     -0.431108 
 C141  C    -0.186584      0.188339     -0.494017 
 H142  H    -0.291043      0.324732      0.394191 
 H143  H    -0.323695      0.292864     -0.382243 
 H144  H    -0.209676      0.179345     -0.382229 
 H145  H    -0.177248      0.211212      0.394195 
 N146  N    -0.003068     -0.000081     -0.314229 
 C147  C     0.040611     -0.078987     -0.287719 
 C148  C     0.043050      0.076618     -0.286199 
 C149  C    -0.092892      0.001020     -0.286722 
 C150  C    -0.041702      0.077982      0.294144 
 H151  H     0.011379      0.135990     -0.305793 
 H152  H     0.110060      0.076992     -0.306514 
 C153  C     0.092171     -0.001165      0.294648 
 H154  H     0.007718     -0.136849     -0.308984 
 H155  H     0.107828     -0.080373     -0.307487 
 C156  C    -0.043439     -0.077623      0.295345 
 H157  H    -0.126484      0.059315     -0.306198 
 H158  H    -0.128451     -0.055487     -0.307480 
 H159  H     0.126200     -0.058568      0.315338 
 H160  H     0.127260      0.056240      0.314264 
 H161  H    -0.008595      0.136505      0.313988 
 H162  H    -0.108756      0.080021      0.314293 
 H163  H    -0.012073     -0.136336      0.316468 
 N164  N     0.002302      0.000084      0.322062 
 H165  H    -0.110678     -0.077289      0.315108 
 C166  C     0.290211      0.275384      0.438672 
 C167  C     0.225931      0.211334      0.438708 
 C168  C     0.185383      0.188549     -0.498324 
 C169  C     0.208237      0.229158     -0.435426 
 C170  C     0.272447      0.293213     -0.435468 
 C171  C     0.313093      0.315934     -0.498400 
 H172  H     0.208081      0.179508      0.389818 
 H173  H     0.176413      0.211456     -0.386477 
 H174  H     0.290226      0.325008     -0.386540 
 H175  H     0.322102      0.293084      0.389762 
 C176  C     0.290705     -0.270670     -0.435280 
 C177  C     0.226513     -0.206615     -0.435342 
 C178  C     0.185952     -0.184048     -0.498251 
 C179  C     0.208927     -0.224756      0.438860 
 C180  C     0.273193     -0.288798      0.438915 
 C181  C     0.313648     -0.311438     -0.498139 
 H182  H     0.208689     -0.174697     -0.386442 
 H183  H     0.177112     -0.207187      0.389962 
 H184  H     0.291099     -0.320737      0.390048 
 H185  H     0.322453     -0.288244     -0.386346 
 N186  N    -0.497708     -0.499644     -0.314262 
 C187  C     0.454988      0.423587     -0.287593 
 C188  C    -0.407869      0.497285     -0.287073 
 C189  C     0.459891     -0.420878     -0.286075 
 C190  C    -0.458977      0.421240      0.295283 
 H191  H    -0.375055      0.439151     -0.307892 
 H192  H    -0.371590     -0.446091     -0.306732 
 C193  C     0.407120     -0.499424      0.294757 
 H194  H     0.387738      0.425358     -0.307133 
 H195  H     0.485085      0.364252     -0.308969 
 C196  C    -0.457320     -0.423143      0.294086 
 H197  H     0.392907     -0.417420     -0.306086 
 H198  H     0.494217     -0.363042     -0.305846 
 H199  H     0.373270     -0.441262      0.314386 
 H200  H     0.371808      0.443934      0.315522 
 H201  H    -0.491656      0.363215      0.316439 
 H202  H    -0.391781      0.420113      0.314958 
 H203  H    -0.390282     -0.422504      0.314182 
 N204  N     0.496951      0.499915      0.322058 
 H205  H    -0.489215     -0.363932      0.313947 
 C206  C    -0.227156     -0.207164      0.443324 
 C207  C    -0.291360     -0.271223      0.443290 
 C208  C    -0.314433     -0.311639     -0.493810 
 C209  C    -0.274102     -0.288664     -0.430845 
 C210  C    -0.209824     -0.224609     -0.430816 
 C211  C    -0.186728     -0.184247     -0.493748 
 H212  H    -0.323013     -0.289072      0.394342 
 H213  H    -0.292128     -0.320337     -0.381951 
 H214  H    -0.178108     -0.206751     -0.381909 
 H215  H    -0.209216     -0.175516      0.394393 
loop_  
_geom_bond_atom_site_label_1  
_geom_bond_atom_site_label_2  
Cu0   Cu1 
Cu0   O4 
Cu0   O7 
Cu0   O10 
Cu0   O13 
Cu0   N38 
Cu1   O2 
Cu1   O5 
Cu1   O8 
Cu1   O11 
Cu1   N56 
O2   C3 
C3   O4 
C3   C33 
O5   C6 
C6   O7 
C6   C60 
O8   C9 
C9   O10 
C9   C103 
O11   C12 
C12   O13 
C12   C70 
Cu14   Cu15 
Cu14   O18 
Cu14   O21 
Cu14   O24 
Cu14   O27 
Cu14   N78 
Cu15   O16 
Cu15   O19 
Cu15   O22 
Cu15   O25 
Cu15   N96 
O16   C17 
C17   O18 
C17   C73 
O19   C20 
C20   O21 
C20   C100 
O22   C23 
C23   O24 
C23   C63 
O25   C26 
C26   O27 
C26   C30 
C28   C29 
C28   C33 
C28   H37 
C29   C30 
C29   H34 
C30   C31 
C31   C32 
C31   H35 
C32   C33 
C32   H36 
N38   C39 
N38   C40 
N38   C41 
C39   C153 
C39   H46 
C39   H47 
C40   C150 
C40   H43 
C40   H44 
C41   C156 
C41   H49 
C41   H50 
C42   C148 
C42   H53 
C42   H54 
C42   N56 
C45   C147 
C45   H51 
C45   H52 
C45   N56 
C48   C149 
C48   H55 
C48   N56 
C48   H57 
C58   C59 
C58   C63 
C58   H67 
C59   C60 
C59   H64 
C60   C61 
C61   C62 
C61   H65 
C62   C63 
C62   H66 
C68   C69 
C68   C73 
C68   H77 
C69   C70 
C69   H74 
C70   C71 
C71   C72 
C71   H75 
C72   C73 
C72   H76 
N78   C79 
N78   C80 
N78   C81 
C79   C193 
C79   H86 
C79   H87 
C80   C190 
C80   H83 
C80   H84 
C81   C196 
C81   H89 
C81   H90 
C82   C188 
C82   H93 
C82   H94 
C82   N96 
C85   C187 
C85   H91 
C85   H92 
C85   N96 
C88   C189 
C88   H95 
C88   N96 
C88   H97 
C98   C99 
C98   C103 
C98   H107 
C99   C100 
C99   H104 
C100   C101 
C101   C102 
C101   H105 
C102   C103 
C102   H106 
Cu108   Cu109 
Cu108   O112 
Cu108   O115 
Cu108   O118 
Cu108   O121 
Cu108   N146 
Cu109   O110 
Cu109   O113 
Cu109   O116 
Cu109   O119 
Cu109   N164 
O110   C111 
C111   O112 
C111   C141 
O113   C114 
C114   O115 
C114   C168 
O116   C117 
C117   O118 
C117   C211 
O119   C120 
C120   O121 
C120   C178 
Cu122   Cu123 
Cu122   O126 
Cu122   O129 
Cu122   O132 
Cu122   O135 
Cu122   N186 
Cu123   O124 
Cu123   O127 
Cu123   O130 
Cu123   O133 
Cu123   N204 
O124   C125 
C125   O126 
C125   C181 
O127   C128 
C128   O129 
C128   C208 
O130   C131 
C131   O132 
C131   C171 
O133   C134 
C134   O135 
C134   C138 
C136   C137 
C136   C141 
C136   H145 
C137   C138 
C137   H142 
C138   C139 
C139   C140 
C139   H143 
C140   C141 
C140   H144 
N146   C147 
N146   C148 
N146   C149 
C147   H154 
C147   H155 
C148   H151 
C148   H152 
C149   H157 
C149   H158 
C150   H161 
C150   H162 
C150   N164 
C153   H159 
C153   H160 
C153   N164 
C156   H163 
C156   N164 
C156   H165 
C166   C167 
C166   C171 
C166   H175 
C167   C168 
C167   H172 
C168   C169 
C169   C170 
C169   H173 
C170   C171 
C170   H174 
C176   C177 
C176   C181 
C176   H185 
C177   C178 
C177   H182 
C178   C179 
C179   C180 
C179   H183 
C180   C181 
C180   H184 
N186   C187 
N186   C188 
N186   C189 
C187   H194 
C187   H195 
C188   H191 
C188   H192 
C189   H197 
C189   H198 
C190   H201 
C190   H202 
C190   N204 
C193   H199 
C193   H200 
C193   N204 
C196   H203 
C196   N204 
C196   H205 
C206   C207 
C206   C211 
C206   H215 
C207   C208 
C207   H212 
C208   C209 
C209   C210 
C209   H213 
C210   C211 
C210   H214 
  
#END  
