data_
_symmetry_cell_setting           triclinic 
_symmetry_space_group_name_H-M   'P 1' 
_symmetry_Int_Tables_number      1 
loop_ 
_symmetry_equiv_pos_site_id 
_symmetry_equiv_pos_as_xyz 
1 x,y,z 
_cell_length_a             18.404894        
_cell_length_b             10.689516        
_cell_length_c             19.069843        
_cell_angle_alpha          91.670470        
_cell_angle_beta           90.579727        
_cell_angle_gamma          89.902587        
loop_  
_atom_site_label   
_atom_site_type_symbol  
_atom_site_fract_x  
_atom_site_fract_y  
_atom_site_fract_z 
 Cu0  Cu    -0.002643     -0.010118      0.065928 
 Cu1  Cu    -0.003599      0.005490     -0.070356 
 O2  O    -0.089226      0.114400     -0.057909 
 C3  C    -0.117772      0.128797      0.002331 
 O4  O    -0.087089      0.104417      0.060382 
 O5  O     0.060906      0.151920     -0.054886 
 C6  C     0.091441      0.168382      0.004800 
 O7  O     0.067839      0.129772      0.062795 
 O8  O    -0.073036     -0.137371     -0.067406 
 C9  C    -0.099954     -0.169599     -0.009317 
 O10  O    -0.071912     -0.149222      0.051235 
 O11  O     0.084250     -0.103966     -0.062998 
 C12  C     0.111202     -0.136956     -0.004625 
 O13  O     0.080793     -0.124851      0.054810 
 Cu14  Cu     0.498977      0.489859      0.073039 
 Cu15  Cu     0.494667      0.495439     -0.063650 
 O16  O     0.434452     -0.351107     -0.048482 
 C17  C     0.401928     -0.338407      0.009885 
 O18  O     0.427352     -0.371675      0.068758 
 O19  O    -0.414978     -0.407667     -0.053420 
 C20  C    -0.387007     -0.376483      0.005595 
 O21  O    -0.414936     -0.395000      0.065338 
 O22  O     0.404830      0.397303     -0.060573 
 C23  C     0.382431      0.359230     -0.002039 
 O24  O     0.415968      0.370455      0.056659 
 O25  O    -0.443694      0.344173     -0.058101 
 C26  C    -0.410787      0.319491     -0.001152 
 O27  O    -0.432520      0.349908      0.060230 
 C28  C    -0.221344      0.223064     -0.059286 
 C29  C    -0.195145      0.172629      0.002864 
 C30  C    -0.240280      0.162066      0.061374 
 C31  C    -0.311998      0.205228      0.056865 
 C32  C    -0.337427      0.259098     -0.004625 
 C33  C    -0.292835      0.266990     -0.063651 
 O34  O    -0.213258      0.107481      0.120295 
 C35  C    -0.257790      0.093896      0.180994 
 C36  C    -0.258417      0.215905      0.224470 
 C37  C    -0.302540      0.210618      0.292324 
 C38  C    -0.275451      0.112827      0.343740 
 O39  O    -0.319385      0.320576     -0.123040 
 C40  C    -0.270709      0.352701     -0.178035 
 C41  C    -0.257435      0.241438     -0.227901 
 C42  C    -0.202509      0.267388     -0.285746 
 C43  C    -0.223012      0.378063     -0.331206 
 H44  H    -0.348096      0.200021      0.101784 
 H45  H    -0.185187      0.229719     -0.104054 
 H46  H    -0.297326      0.427413     -0.206887 
 H47  H    -0.219972      0.392412     -0.155837 
 H48  H    -0.312556      0.062064      0.165448 
 H49  H    -0.233864      0.018410      0.211506 
 H50  H    -0.237964      0.161207     -0.198270 
 H51  H    -0.309458      0.212200     -0.252335 
 H52  H    -0.202077      0.242682      0.237854 
 H53  H    -0.280203      0.291531      0.192451 
 H54  H    -0.301049      0.303317      0.318967 
 H55  H    -0.360026      0.192887      0.279179 
 H56  H    -0.148515      0.283810     -0.261949 
 H57  H    -0.197288      0.182891     -0.319647 
 H58  H    -0.184374      0.388260     -0.374219 
 H59  H    -0.277450      0.366541     -0.354691 
 H60  H    -0.222771      0.466136     -0.300416 
 H61  H    -0.218582      0.129467      0.359440 
 H62  H    -0.307955      0.115444      0.391775 
 H63  H    -0.279305      0.017469      0.321201 
 N64  N     0.000308     -0.004668      0.315945 
 C65  C     0.003959     -0.134311      0.286803 
 C66  C    -0.067036      0.053898      0.289633 
 C67  C     0.062705      0.065890      0.289226 
 C68  C    -0.068314      0.052175      0.207820 
 H69  H    -0.114390      0.004160      0.310081 
 H70  H    -0.070059      0.150902      0.310486 
 C71  C     0.003021     -0.135041      0.204843 
 H72  H     0.053435     -0.179945      0.306631 
 H73  H    -0.042159     -0.187886      0.306664 
 C74  C     0.061048      0.066265      0.207490 
 H75  H     0.060966      0.162596      0.310750 
 H76  H     0.113479      0.024003      0.308681 
 H77  H     0.052247     -0.180224      0.183556 
 H78  H    -0.043532     -0.189509      0.183797 
 H79  H    -0.115157     -0.001284      0.186974 
 H80  H    -0.073349      0.148231      0.188700 
 H81  H     0.111399      0.026392      0.185488 
 N82  N    -0.001701     -0.005921      0.179351 
 H83  H     0.057009      0.163226      0.189578 
 C84  C     0.252343      0.372426     -0.036309 
 C85  C     0.307494      0.305841     -0.002426 
 C86  C     0.292887      0.197210      0.034193 
 C87  C     0.220520      0.158628      0.040350 
 C88  C     0.165485      0.224966      0.006476 
 C89  C     0.179916      0.333391     -0.030377 
 O90  O     0.351207      0.132411      0.060032 
 C91  C     0.337938      0.030382      0.105044 
 C92  C     0.408631     -0.035407      0.123693 
 C93  C     0.466588      0.051579      0.156553 
 C94  C    -0.465077     -0.018308      0.180125 
 O95  O     0.120990      0.395159     -0.057284 
 C96  C     0.131998     -0.496918     -0.098498 
 C97  C     0.059597     -0.432958     -0.113092 
 C98  C     0.004097      0.484733     -0.153637 
 C99  C    -0.065852     -0.444993     -0.172346 
 H100  H     0.206945      0.073733      0.067908 
 H101  H     0.265633      0.456814     -0.064406 
 H102  H     0.168749     -0.431068     -0.070503 
 H103  H     0.157809      0.471955     -0.147790 
 H104  H     0.311711      0.069003      0.152494 
 H105  H     0.300660     -0.036870      0.078898 
 H106  H     0.035578     -0.399739     -0.063201 
 H107  H     0.069956     -0.348181     -0.142810 
 H108  H     0.397048     -0.110659      0.160142 
 H109  H     0.430734     -0.082815      0.076624 
 H110  H     0.481575      0.122604      0.118546 
 H111  H     0.443037      0.103275      0.201566 
 H112  H     0.029075      0.446586     -0.201863 
 H113  H    -0.009515      0.403465     -0.122150 
 H114  H    -0.054478     -0.364875     -0.205310 
 H115  H    -0.104336      0.493572     -0.201104 
 H116  H    -0.093191     -0.408704     -0.124978 
 H117  H    -0.478192     -0.090292      0.217929 
 H118  H    -0.437806     -0.064961      0.135501 
 H119  H    -0.426097      0.046514      0.205481 
 C120  C     0.201186     -0.281901      0.045266 
 C121  C     0.186565     -0.189727     -0.003527 
 C122  C     0.241267     -0.144324     -0.046854 
 C123  C     0.311390     -0.195113     -0.041713 
 C124  C     0.326187     -0.286833      0.007429 
 C125  C     0.271421     -0.331684      0.051088 
 O126  O     0.224007     -0.050395     -0.091688 
 C127  C     0.281040      0.018490     -0.123917 
 C128  C     0.246391      0.119749     -0.167940 
 C129  C     0.301634      0.200943     -0.205610 
 C130  C     0.265992      0.287423     -0.258754 
 O131  O     0.287981     -0.423338      0.097685 
 C132  C     0.230344     -0.491609      0.129659 
 C133  C     0.263726      0.410379      0.176785 
 C134  C     0.207640      0.328924      0.213183 
 C135  C     0.241465      0.249600      0.270806 
 H136  H     0.354648     -0.162793     -0.075481 
 H137  H     0.157560     -0.314350      0.078636 
 H138  H     0.195824     -0.426962      0.160567 
 H139  H     0.196160      0.463896      0.088424 
 H140  H     0.317208      0.059699     -0.083123 
 H141  H     0.313596     -0.045397     -0.157207 
 H142  H     0.300255      0.349441      0.145764 
 H143  H     0.298479      0.456005      0.217065 
 H144  H     0.209109      0.077318     -0.207160 
 H145  H     0.212056      0.180201     -0.134371 
 H146  H     0.332399      0.257118     -0.166189 
 H147  H     0.341698      0.140617     -0.232594 
 H148  H     0.164647      0.388592      0.235933 
 H149  H     0.180530      0.267575      0.173631 
 H150  H     0.266983      0.308630      0.312281 
 H151  H     0.200330      0.192134      0.295902 
 H152  H     0.283564      0.186474      0.249751 
 H153  H     0.306764      0.343436     -0.285344 
 H154  H     0.235925      0.233630     -0.299583 
 H155  H     0.227485      0.352275     -0.233167 
 N156  N    -0.498387      0.496748      0.325281 
 C157  C     0.447925     -0.412478      0.298881 
 C158  C    -0.426166     -0.469287      0.298219 
 C159  C     0.482061      0.371444      0.295892 
 C160  C    -0.426374     -0.473563      0.216186 
 H161  H    -0.411901     -0.374722      0.318393 
 H162  H    -0.384808      0.466616      0.318988 
 C163  C     0.449202     -0.409890      0.217038 
 H164  H     0.393596     -0.439121      0.317159 
 H165  H     0.459698     -0.318854      0.321936 
 C166  C     0.480296      0.371531      0.213895 
 H167  H    -0.478457      0.302320      0.315090 
 H168  H     0.428553      0.344279      0.315973 
 H169  H     0.394651     -0.427505      0.194785 
 H170  H     0.465811     -0.316734      0.199701 
 H171  H    -0.408935     -0.382756      0.196179 
 H172  H    -0.387899      0.455318      0.195914 
 H173  H     0.425727      0.346644      0.193694 
 N174  N    -0.499499      0.495751      0.188102 
 H175  H    -0.481751      0.300958      0.192119 
 C176  C    -0.253729     -0.397107      0.013225 
 C177  C    -0.313704     -0.317909      0.002877 
 C178  C    -0.304803     -0.191741     -0.015169 
 C179  C    -0.234000     -0.147361     -0.023249 
 C180  C    -0.174301     -0.225253     -0.011087 
 C181  C    -0.183032     -0.350195      0.006217 
 O182  O    -0.357506     -0.102476     -0.026848 
 C183  C    -0.433882     -0.130519     -0.025645 
 C184  C    -0.478846     -0.011859     -0.034450 
 C185  C    -0.472982      0.051207     -0.105539 
 C186  C     0.499812     -0.029187     -0.168396 
 O187  O    -0.119484     -0.415035      0.015312 
 C188  C    -0.120002      0.462102      0.042730 
 C189  C    -0.041866      0.415901      0.049321 
 C190  C     0.010122     -0.497451      0.091635 
 C191  C    -0.009298     -0.481323      0.169317 
 H192  H    -0.226793     -0.050069     -0.037058 
 H193  H    -0.261599     -0.495260      0.025242 
 H194  H    -0.147178      0.463113      0.093769 
 H195  H    -0.151118      0.401130      0.006195 
 H196  H    -0.447046     -0.198504     -0.068217 
 H197  H    -0.447256     -0.172406      0.024656 
 H198  H    -0.041776      0.323672      0.073481 
 H199  H    -0.019819      0.399676     -0.003590 
 H200  H     0.463607     -0.034347     -0.026326 
 H201  H    -0.463989      0.056564      0.007539 
 H202  H     0.495090      0.138367     -0.102740 
 H203  H    -0.416453      0.080221     -0.113678 
 H204  H     0.065390      0.463830      0.087380 
 H205  H     0.012022     -0.405088      0.067501 
 H206  H     0.031137     -0.423268      0.197777 
 H207  H    -0.062390     -0.435542      0.175583 
 H208  H    -0.011551      0.427802      0.194714 
 H209  H    -0.497256      0.022660     -0.217188 
 H210  H    -0.467642     -0.114635     -0.175560 
 H211  H     0.443070     -0.057570     -0.161669 
 Cu212  Cu     0.005186      0.012760     -0.434624 
 Cu213  Cu     0.004203      0.008213      0.428726 
 O214  O    -0.067830      0.148413      0.444438 
 C215  C    -0.100021      0.163926     -0.497019 
 O216  O    -0.077097      0.127637     -0.437839 
 O217  O     0.086590      0.124219      0.440811 
 C218  C     0.109345      0.163093     -0.499224 
 O219  O     0.076785      0.150455     -0.441229 
 O220  O    -0.076913     -0.109708      0.430496 
 C221  C    -0.098678     -0.144082      0.489912 
 O222  O    -0.064930     -0.126283     -0.451955 
 O223  O     0.076747     -0.130239      0.435743 
 C224  C     0.108937     -0.143389      0.494529 
 O225  O     0.085343     -0.106193     -0.445960 
 Cu226  Cu    -0.494723     -0.489771     -0.423591 
 Cu227  Cu    -0.494890     -0.488298      0.439841 
 O228  O     0.424790     -0.369347      0.451498 
 C229  C     0.400897     -0.335420     -0.488501 
 O230  O     0.433440     -0.350062     -0.430100 
 O231  O    -0.422788     -0.352061      0.460021 
 C232  C    -0.388984     -0.338802     -0.481441 
 O233  O    -0.411942     -0.374496     -0.422836 
 O234  O     0.432605      0.374105      0.445638 
 C235  C     0.400227      0.358501     -0.496533 
 O236  O     0.422922      0.394874     -0.436125 
 O237  O    -0.413487      0.394677      0.443077 
 C238  C    -0.391204      0.357386     -0.497674 
 O239  O    -0.424503      0.370165     -0.439641 
 C240  C    -0.229081      0.147998     -0.464486 
 C241  C    -0.175058      0.216504     -0.497388 
 C242  C    -0.190574      0.329717      0.470661 
 C243  C    -0.262096      0.373723      0.470053 
 C244  C    -0.316040      0.305688     -0.496508 
 C245  C    -0.300515      0.193982     -0.462757 
 O246  O    -0.135391      0.401959      0.447148 
 C247  C    -0.133533      0.422726      0.373428 
 C248  C    -0.082308     -0.468786      0.360301 
 C249  C    -0.006728     -0.477951      0.394729 
 C250  C     0.037537      0.407120      0.371121 
 O251  O    -0.356481      0.136511     -0.429336 
 C252  C    -0.344940      0.013613     -0.403652 
 C253  C    -0.409448     -0.031070     -0.361667 
 C254  C    -0.481178     -0.049388     -0.402574 
 C255  C     0.476535      0.071429     -0.416190 
 H256  H    -0.274256      0.462885      0.446077 
 H257  H    -0.214991      0.059756     -0.440276 
 H258  H    -0.335258     -0.049457     -0.449224 
 H259  H    -0.296096      0.013796     -0.369874 
 H260  H    -0.114869      0.336109      0.346699 
 H261  H    -0.188494      0.443157      0.353459 
 H262  H    -0.394455     -0.121900     -0.340066 
 H263  H    -0.418129      0.032961     -0.316244 
 H264  H    -0.076019     -0.459209      0.303446 
 H265  H    -0.107850     -0.381548      0.379781 
 H266  H     0.023807     -0.392200      0.384088 
 H267  H    -0.012978     -0.478097      0.452002 
 H268  H    -0.470016     -0.099484     -0.452530 
 H269  H     0.484102     -0.112809     -0.373248 
 H270  H     0.425937      0.051459     -0.445463 
 H271  H     0.461587      0.119462     -0.366788 
 H272  H    -0.491930      0.137312     -0.446843 
 H273  H     0.045971      0.404304      0.314187 
 H274  H     0.091155      0.406691      0.397034 
 H275  H     0.010083      0.320350      0.385134 
 N276  N    -0.001839      0.018530     -0.184115 
 C277  C     0.012053      0.146914     -0.207676 
 C278  C     0.056222     -0.064400     -0.211863 
 C279  C    -0.071797     -0.023863     -0.215355 
 C280  C     0.061051     -0.056797     -0.293299 
 H281  H     0.108436     -0.038250     -0.186880 
 H282  H     0.044490     -0.161103     -0.196932 
 C283  C     0.011685      0.150577     -0.289603 
 H284  H    -0.029509      0.210479     -0.185382 
 H285  H     0.064984      0.178821     -0.186309 
 C286  C    -0.067791     -0.027424     -0.297123 
 H287  H    -0.085434     -0.117224     -0.196265 
 H288  H    -0.115043      0.040347     -0.197060 
 H289  H    -0.032597      0.210702     -0.308694 
 H290  H     0.062771      0.191012     -0.308379 
 H291  H     0.113719     -0.017368     -0.308598 
 H292  H     0.057237     -0.151116     -0.318028 
 H293  H    -0.113022      0.025573     -0.320227 
 N294  N     0.002365      0.023166     -0.320815 
 H295  H    -0.072952     -0.124646     -0.317285 
 C296  C     0.235234      0.158724      0.457549 
 C297  C     0.184367      0.216035     -0.497801 
 C298  C     0.202968      0.318411     -0.453804 
 C299  C     0.274483      0.362592     -0.453851 
 C300  C     0.325354      0.305237     -0.498440 
 C301  C     0.306890      0.202655      0.457630 
 O302  O     0.150022      0.370843     -0.412620 
 C303  C     0.158988      0.496914     -0.386355 
 C304  C     0.087617     -0.463244     -0.352947 
 C305  C     0.023318     -0.463581     -0.404936 
 C306  C    -0.049691     -0.434181     -0.370409 
 O307  O     0.360220      0.149574      0.417045 
 C308  C     0.349489      0.025660      0.388045 
 C309  C     0.420037     -0.016248      0.353607 
 C310  C     0.483861     -0.026293      0.405628 
 C311  C    -0.443936     -0.063168      0.371565 
 H312  H     0.290334      0.442192     -0.419920 
 H313  H     0.219209      0.079001      0.423771 
 H314  H     0.334373     -0.037950      0.429975 
 H315  H     0.304818      0.026822      0.349283 
 H316  H     0.203580     -0.499108     -0.347444 
 H317  H     0.172951     -0.441742     -0.429678 
 H318  H     0.411662     -0.107464      0.326462 
 H319  H     0.434262      0.050353      0.313057 
 H320  H     0.075551      0.473649     -0.310004 
 H321  H     0.093554     -0.368859     -0.328941 
 H322  H     0.033749     -0.394556     -0.445420 
 H323  H     0.019741      0.444482     -0.432458 
 H324  H     0.490920      0.063946      0.434219 
 H325  H     0.470087     -0.095386      0.445073 
 H326  H    -0.400587     -0.068059      0.411459 
 H327  H    -0.447469     -0.155226      0.344708 
 H328  H    -0.427382      0.005743      0.333276 
 H329  H    -0.093736     -0.435503     -0.409799 
 H330  H    -0.062911      0.496457     -0.331121 
 H331  H    -0.049098     -0.341186     -0.344404 
 C332  C     0.279984     -0.332540      0.456427 
 C333  C     0.324779     -0.286601     -0.489090 
 C334  C     0.299152     -0.197507     -0.440051 
 C335  C     0.229104     -0.149132     -0.449290 
 C336  C     0.184355     -0.194967      0.496248 
 C337  C     0.209410     -0.285779      0.448041 
 O338  O     0.343327     -0.159227     -0.385464 
 C339  C     0.312961     -0.084734     -0.329150 
 C340  C     0.257132     -0.159417     -0.288669 
 C341  C     0.289237     -0.274569     -0.254049 
 C342  C     0.235367     -0.341853     -0.207702 
 O343  O     0.163572     -0.327502      0.395595 
 C344  C     0.193549     -0.396206      0.337064 
 C345  C     0.243374     -0.311847      0.295856 
 C346  C     0.203799     -0.199116      0.265888 
 C347  C     0.251582     -0.122882      0.218138 
 H348  H     0.208810     -0.074696     -0.414164 
 H349  H     0.300496     -0.405815      0.420693 
 H350  H     0.221224     -0.481226      0.354836 
 H351  H     0.147396     -0.427617      0.303931 
 H352  H     0.358666     -0.056979     -0.294422 
 H353  H     0.289969      0.002419     -0.349529 
 H354  H     0.289193     -0.277543      0.328546 
 H355  H     0.268275     -0.365930      0.252647 
 H356  H     0.232653     -0.098753     -0.247991 
 H357  H     0.211518     -0.190220     -0.322628 
 H358  H     0.308243     -0.339927     -0.295528 
 H359  H     0.337139     -0.246050     -0.222576 
 H360  H     0.155611     -0.231931      0.236250 
 H361  H     0.184259     -0.139085      0.309633 
 H362  H     0.299907     -0.087053      0.246253 
 H363  H     0.270148     -0.180370      0.173115 
 H364  H     0.221625     -0.042716      0.197696 
 H365  H     0.261409     -0.421910     -0.182716 
 H366  H     0.214682     -0.279096     -0.165857 
 H367  H     0.188358     -0.376755     -0.238243 
 N368  N     0.496600      0.478465     -0.176673 
 C369  C     0.429028     -0.467573     -0.205199 
 C370  C    -0.442304     -0.442861     -0.198531 
 C371  C    -0.494236      0.351609     -0.208398 
 C372  C    -0.435658     -0.445418     -0.279894 
 H373  H    -0.451961     -0.346250     -0.178954 
 H374  H    -0.391654     -0.474890     -0.173742 
 C375  C     0.434881     -0.453810     -0.286190 
 H376  H     0.383252      0.471128     -0.192309 
 H377  H     0.418639     -0.376002     -0.179209 
 C378  C    -0.495995      0.356346     -0.290093 
 H379  H    -0.442074      0.312832     -0.190302 
 H380  H     0.462860      0.289791     -0.189306 
 H381  H     0.387619     -0.496242     -0.313640 
 H382  H     0.435698     -0.353880     -0.299037 
 H383  H    -0.433756     -0.349148     -0.298940 
 H384  H    -0.385148     -0.492572     -0.296735 
 H385  H     0.455269      0.308322     -0.311357 
 N386  N    -0.497709      0.487454     -0.312712 
 H387  H    -0.448486      0.307728     -0.312869 
 C388  C    -0.195532     -0.229884     -0.438360 
 C389  C    -0.172748     -0.200537      0.494561 
 C390  C    -0.219594     -0.216711      0.436684 
 C391  C    -0.290640     -0.256756      0.448099 
 C392  C    -0.313785     -0.285862     -0.484695 
 C393  C    -0.266470     -0.270967     -0.426451 
 O394  O    -0.196832     -0.192269      0.370385 
 C395  C    -0.236574     -0.251363      0.313551 
 C396  C    -0.190524     -0.250674      0.248163 
 C397  C    -0.226074     -0.318224      0.184812 
 C398  C    -0.238715     -0.458108      0.195634 
 O399  O    -0.287580     -0.294088     -0.358988 
 C400  C    -0.233985     -0.274749     -0.303886 
 C401  C    -0.264152     -0.296704     -0.231421 
 C402  C    -0.318590     -0.197991     -0.204963 
 C403  C    -0.286643     -0.066144     -0.197504 
 H404  H    -0.328196     -0.266547      0.403675 
 H405  H    -0.157056     -0.217782     -0.394817 
 H406  H    -0.188255     -0.339258     -0.313725 
 H407  H    -0.213198     -0.178431     -0.305605 
 H408  H    -0.249369     -0.348107      0.327428 
 H409  H    -0.287955     -0.200760      0.304938 
 H410  H    -0.290209     -0.388804     -0.231644 
 H411  H    -0.218826     -0.301274     -0.193347 
 H412  H    -0.178639     -0.153727      0.234722 
 H413  H    -0.137736     -0.294831      0.258842 
 H414  H    -0.277838     -0.272212      0.171606 
 H415  H    -0.190736     -0.306417      0.139327 
 H416  H    -0.366176     -0.196988     -0.240144 
 H417  H    -0.338885     -0.226365     -0.153757 
 H418  H    -0.238542     -0.064371     -0.162892 
 H419  H    -0.270646     -0.030524     -0.248472 
 H420  H    -0.326486     -0.000373     -0.174914 
 H421  H    -0.187425      0.492855      0.206205 
 H422  H    -0.274764     -0.474087      0.239921 
 H423  H    -0.263961      0.497250      0.148853 
loop_  
_geom_bond_atom_site_label_1  
_geom_bond_atom_site_label_2  
Cu0   Cu1 
Cu0   O4 
Cu0   O7 
Cu0   O10 
Cu0   O13 
Cu0   N82 
Cu1   O2 
Cu1   O5 
Cu1   O8 
Cu1   O11 
Cu1   N276 
O2   C3 
C3   O4 
C3   C29 
O5   C6 
C6   O7 
C6   C88 
O8   C9 
C9   O10 
C9   C180 
O11   C12 
C12   O13 
C12   C121 
Cu14   Cu15 
Cu14   O18 
Cu14   O21 
Cu14   O24 
Cu14   O27 
Cu14   N174 
Cu15   O16 
Cu15   O19 
Cu15   O22 
Cu15   O25 
Cu15   N368 
O16   C17 
C17   O18 
C17   C124 
O19   C20 
C20   O21 
C20   C177 
O22   C23 
C23   O24 
C23   C85 
O25   C26 
C26   O27 
C26   C32 
C28   C29 
C28   C33 
C28   H45 
C29   C30 
C30   C31 
C30   O34 
C31   C32 
C31   H44 
C32   C33 
C33   O39 
O34   C35 
C35   C36 
C35   H48 
C35   H49 
C36   C37 
C36   H52 
C36   H53 
C37   C38 
C37   H54 
C37   H55 
C38   H61 
C38   H62 
C38   H63 
O39   C40 
C40   C41 
C40   H46 
C40   H47 
C41   C42 
C41   H50 
C41   H51 
C42   C43 
C42   H56 
C42   H57 
C43   H58 
C43   H59 
C43   H60 
N64   C65 
N64   C66 
N64   C67 
N64   Cu213 
C65   C71 
C65   H72 
C65   H73 
C66   C68 
C66   H69 
C66   H70 
C67   C74 
C67   H75 
C67   H76 
C68   H79 
C68   H80 
C68   N82 
C71   H77 
C71   H78 
C71   N82 
C74   H81 
C74   N82 
C74   H83 
C84   C85 
C84   C89 
C84   H101 
C85   C86 
C86   C87 
C86   O90 
C87   C88 
C87   H100 
C88   C89 
C89   O95 
O90   C91 
C91   C92 
C91   H104 
C91   H105 
C92   C93 
C92   H108 
C92   H109 
C93   C94 
C93   H110 
C93   H111 
C94   H117 
C94   H118 
C94   H119 
O95   C96 
C96   C97 
C96   H102 
C96   H103 
C97   C98 
C97   H106 
C97   H107 
C98   C99 
C98   H112 
C98   H113 
C99   H114 
C99   H115 
C99   H116 
C120   C121 
C120   C125 
C120   H137 
C121   C122 
C122   C123 
C122   O126 
C123   C124 
C123   H136 
C124   C125 
C125   O131 
O126   C127 
C127   C128 
C127   H140 
C127   H141 
C128   C129 
C128   H144 
C128   H145 
C129   C130 
C129   H146 
C129   H147 
C130   H153 
C130   H154 
C130   H155 
O131   C132 
C132   C133 
C132   H138 
C132   H139 
C133   C134 
C133   H142 
C133   H143 
C134   C135 
C134   H148 
C134   H149 
C135   H150 
C135   H151 
C135   H152 
N156   C157 
N156   C158 
N156   C159 
N156   Cu227 
C157   C163 
C157   H164 
C157   H165 
C158   C160 
C158   H161 
C158   H162 
C159   C166 
C159   H167 
C159   H168 
C160   H171 
C160   H172 
C160   N174 
C163   H169 
C163   H170 
C163   N174 
C166   H173 
C166   N174 
C166   H175 
C176   C177 
C176   C181 
C176   H193 
C177   C178 
C178   C179 
C178   O182 
C179   C180 
C179   H192 
C180   C181 
C181   O187 
O182   C183 
C183   C184 
C183   H196 
C183   H197 
C184   C185 
C184   H200 
C184   H201 
C185   C186 
C185   H202 
C185   H203 
C186   H209 
C186   H210 
C186   H211 
O187   C188 
C188   C189 
C188   H194 
C188   H195 
C189   C190 
C189   H198 
C189   H199 
C190   C191 
C190   H204 
C190   H205 
C191   H206 
C191   H207 
C191   H208 
Cu212   Cu213 
Cu212   O216 
Cu212   O219 
Cu212   O222 
Cu212   O225 
Cu212   N294 
Cu213   O214 
Cu213   O217 
Cu213   O220 
Cu213   O223 
O214   C215 
C215   O216 
C215   C241 
O217   C218 
C218   O219 
C218   C297 
O220   C221 
C221   O222 
C221   C389 
O223   C224 
C224   O225 
C224   C336 
Cu226   Cu227 
Cu226   O230 
Cu226   O233 
Cu226   O236 
Cu226   O239 
Cu226   N386 
Cu227   O228 
Cu227   O231 
Cu227   O234 
Cu227   O237 
O228   C229 
C229   O230 
C229   C333 
O231   C232 
C232   O233 
C232   C392 
O234   C235 
C235   O236 
C235   C300 
O237   C238 
C238   O239 
C238   C244 
C240   C241 
C240   C245 
C240   H257 
C241   C242 
C242   C243 
C242   O246 
C243   C244 
C243   H256 
C244   C245 
C245   O251 
O246   C247 
C247   C248 
C247   H260 
C247   H261 
C248   C249 
C248   H264 
C248   H265 
C249   C250 
C249   H266 
C249   H267 
C250   H273 
C250   H274 
C250   H275 
O251   C252 
C252   C253 
C252   H258 
C252   H259 
C253   C254 
C253   H262 
C253   H263 
C254   C255 
C254   H268 
C254   H269 
C255   H270 
C255   H271 
C255   H272 
N276   C277 
N276   C278 
N276   C279 
C277   C283 
C277   H284 
C277   H285 
C278   C280 
C278   H281 
C278   H282 
C279   C286 
C279   H287 
C279   H288 
C280   H291 
C280   H292 
C280   N294 
C283   H289 
C283   H290 
C283   N294 
C286   H293 
C286   N294 
C286   H295 
C296   C297 
C296   C301 
C296   H313 
C297   C298 
C298   C299 
C298   O302 
C299   C300 
C299   H312 
C300   C301 
C301   O307 
O302   C303 
C303   C304 
C303   H316 
C303   H317 
C304   C305 
C304   H320 
C304   H321 
C305   C306 
C305   H322 
C305   H323 
C306   H329 
C306   H330 
C306   H331 
O307   C308 
C308   C309 
C308   H314 
C308   H315 
C309   C310 
C309   H318 
C309   H319 
C310   C311 
C310   H324 
C310   H325 
C311   H326 
C311   H327 
C311   H328 
C332   C333 
C332   C337 
C332   H349 
C333   C334 
C334   C335 
C334   O338 
C335   C336 
C335   H348 
C336   C337 
C337   O343 
O338   C339 
C339   C340 
C339   H352 
C339   H353 
C340   C341 
C340   H356 
C340   H357 
C341   C342 
C341   H358 
C341   H359 
C342   H365 
C342   H366 
C342   H367 
O343   C344 
C344   C345 
C344   H350 
C344   H351 
C345   C346 
C345   H354 
C345   H355 
C346   C347 
C346   H360 
C346   H361 
C347   H362 
C347   H363 
C347   H364 
N368   C369 
N368   C370 
N368   C371 
C369   C375 
C369   H376 
C369   H377 
C370   C372 
C370   H373 
C370   H374 
C371   C378 
C371   H379 
C371   H380 
C372   H383 
C372   H384 
C372   N386 
C375   H381 
C375   H382 
C375   N386 
C378   H385 
C378   N386 
C378   H387 
C388   C389 
C388   C393 
C388   H405 
C389   C390 
C390   C391 
C390   O394 
C391   C392 
C391   H404 
C392   C393 
C393   O399 
O394   C395 
C395   C396 
C395   H408 
C395   H409 
C396   C397 
C396   H412 
C396   H413 
C397   C398 
C397   H414 
C397   H415 
C398   H421 
C398   H422 
C398   H423 
O399   C400 
C400   C401 
C400   H406 
C400   H407 
C401   C402 
C401   H410 
C401   H411 
C402   C403 
C402   H416 
C402   H417 
C403   H418 
C403   H419 
C403   H420 
  
#END  
