data_
_symmetry_cell_setting           triclinic 
_symmetry_space_group_name_H-M   'P 1' 
_symmetry_Int_Tables_number      1 
loop_ 
_symmetry_equiv_pos_site_id 
_symmetry_equiv_pos_as_xyz 
1 x,y,z 
_cell_length_a             16.044411        
_cell_length_b             14.736350        
_cell_length_c             19.171451        
_cell_angle_alpha          88.757611        
_cell_angle_beta           90.327905        
_cell_angle_gamma          90.138987        
loop_  
_atom_site_label   
_atom_site_type_symbol  
_atom_site_fract_x  
_atom_site_fract_y  
_atom_site_fract_z 
 Cu0  Cu    -0.000284      0.005025      0.060262 
 Cu1  Cu    -0.000795      0.003454     -0.075905 
 O2  O    -0.084068      0.103408     -0.067321 
 C3  C    -0.115029      0.123937     -0.008607 
 O4  O    -0.090652      0.094192      0.050878 
 O5  O     0.094332      0.090481     -0.067392 
 C6  C     0.113477      0.125353     -0.009162 
 O7  O     0.079072      0.106973      0.049002 
 O8  O    -0.093737     -0.085394     -0.063628 
 C9  C    -0.118714     -0.112792     -0.003727 
 O10  O    -0.085769     -0.092165      0.054427 
 O11  O     0.080205     -0.097873     -0.066693 
 C12  C     0.113660     -0.117031     -0.007824 
 O13  O     0.093223     -0.082704      0.049974 
 Cu14  Cu     0.498010     -0.496700      0.062470 
 Cu15  Cu    -0.498864     -0.499835     -0.073720 
 O16  O     0.403172     -0.415693     -0.066563 
 C17  C     0.378161     -0.384800     -0.008738 
 O18  O     0.408332     -0.405711      0.050976 
 O19  O    -0.419318     -0.396640     -0.063333 
 C20  C    -0.392640     -0.369366     -0.004684 
 O21  O    -0.419742     -0.395795      0.054619 
 O22  O     0.425554      0.393898     -0.065906 
 C23  C     0.393208      0.372053     -0.007387 
 O24  O     0.412976      0.405082      0.051389 
 O25  O    -0.404690      0.414218     -0.059336 
 C26  C    -0.381017      0.386399      0.000962 
 O27  O    -0.409879      0.413206      0.058690 
 C28  C    -0.311889      0.256442     -0.054423 
 C29  C    -0.314530      0.314941      0.002345 
 C30  C    -0.255356      0.307903      0.056715 
 C31  C    -0.190287      0.245207      0.050875 
 C32  C    -0.186351      0.189006     -0.006784 
 C33  C    -0.248298      0.191771     -0.058544 
 O34  O    -0.260659      0.363000      0.113425 
 C35  C    -0.204847      0.346175      0.171328 
 C36  C    -0.227134      0.407444      0.231163 
 C37  C    -0.168571      0.396829      0.294602 
 C38  C    -0.190103      0.460144      0.354347 
 O39  O    -0.243320      0.132685     -0.112401 
 C40  C    -0.317905      0.086018     -0.132671 
 C41  C    -0.291406      0.007021     -0.177377 
 C42  C    -0.362924     -0.055852     -0.199243 
 C43  C    -0.333887     -0.134981     -0.243730 
 H44  H    -0.141541      0.240041      0.090811 
 H45  H    -0.358303      0.261395     -0.096142 
 H46  H    -0.351172      0.061812     -0.085673 
 H47  H    -0.359156      0.132806     -0.162120 
 H48  H    -0.209888      0.274400      0.188278 
 H49  H    -0.140335      0.359543      0.154512 
 H50  H    -0.260359      0.033840     -0.224606 
 H51  H    -0.244532     -0.033536     -0.148305 
 H52  H    -0.226491      0.478764      0.212643 
 H53  H    -0.291342      0.392048      0.247640 
 H54  H    -0.170474      0.325992      0.314160 
 H55  H    -0.103887      0.409696      0.278132 
 H56  H    -0.393671     -0.083341     -0.152132 
 H57  H    -0.410247     -0.016128     -0.228283 
 H58  H    -0.386598     -0.178492     -0.258433 
 H59  H    -0.304037     -0.110571     -0.292118 
 H60  H    -0.288661     -0.177816     -0.215076 
 H61  H    -0.146785      0.450607      0.398521 
 H62  H    -0.186990     -0.468096      0.337632 
 H63  H    -0.253307      0.447084      0.374041 
 N64  N     0.003338      0.013199      0.310275 
 C65  C     0.055760     -0.060783      0.283808 
 C66  C    -0.082988     -0.000851      0.284745 
 C67  C     0.034194      0.100176      0.280241 
 C68  C    -0.085961     -0.000607      0.203247 
 H69  H    -0.106536     -0.065951      0.306140 
 H70  H    -0.123579      0.052654      0.305023 
 C71  C     0.051184     -0.063795      0.202537 
 H72  H     0.120586     -0.049286      0.300690 
 H73  H     0.035677     -0.125980      0.307666 
 C74  C     0.032677      0.098152      0.198771 
 H75  H    -0.004820      0.155901      0.299270 
 H76  H     0.098062      0.112666      0.299440 
 H77  H     0.114143     -0.058316      0.180260 
 H78  H     0.025109     -0.129108      0.185554 
 H79  H    -0.112991     -0.064620      0.184728 
 H80  H    -0.126109      0.054633      0.182837 
 H81  H     0.096179      0.107624      0.178340 
 N82  N    -0.001314      0.010803      0.174105 
 H83  H    -0.005224      0.154340      0.176802 
 C84  C     0.252928      0.172479     -0.051637 
 C85  C     0.184775      0.191017     -0.009066 
 C86  C     0.183929      0.267266      0.033554 
 C87  C     0.254415      0.323638      0.035358 
 C88  C     0.322577      0.305384     -0.007447 
 C89  C     0.323384      0.229217     -0.050365 
 O90  O     0.115379      0.281995      0.074177 
 C91  C     0.082849      0.372469      0.078717 
 C92  C     0.033566      0.395991      0.012598 
 C93  C     0.002110      0.494462      0.008623 
 C94  C    -0.064939     -0.483412      0.062371 
 O95  O     0.393643      0.213850     -0.089028 
 C96  C     0.403022      0.130400     -0.125659 
 C97  C     0.428363      0.054030     -0.074834 
 C98  C     0.425505     -0.040674     -0.106829 
 C99  C     0.460049     -0.116093     -0.058420 
 H100  H     0.255908      0.381891      0.069592 
 H101  H     0.251309      0.112419     -0.084036 
 H102  H     0.345828      0.114412     -0.154980 
 H103  H     0.452252      0.141839     -0.164699 
 H104  H     0.042267      0.373270      0.124821 
 H105  H     0.132999      0.422084      0.087448 
 H106  H     0.491940      0.067464     -0.055712 
 H107  H     0.388254      0.054146     -0.028471 
 H108  H     0.072734      0.384092     -0.033189 
 H109  H    -0.019703      0.349069      0.007947 
 H110  H     0.055217     -0.458769      0.014568 
 H111  H    -0.022861     -0.492114     -0.044133 
 H112  H     0.360619     -0.057063     -0.120939 
 H113  H     0.460669     -0.039512     -0.155917 
 H114  H     0.457436     -0.182412     -0.083614 
 H115  H    -0.474609     -0.103362     -0.044012 
 H116  H     0.424162     -0.122159     -0.009967 
 H117  H    -0.085630     -0.412566      0.056296 
 H118  H    -0.120154      0.473135      0.056186 
 H119  H    -0.041811     -0.492587      0.116115 
 C120  C     0.186111     -0.246796     -0.062379 
 C121  C     0.183179     -0.185143     -0.007813 
 C122  C     0.243861     -0.188320      0.045302 
 C123  C     0.305082     -0.255792      0.045461 
 C124  C     0.307995     -0.317475     -0.009127 
 C125  C     0.247208     -0.314421     -0.062166 
 O126  O     0.244471     -0.127394      0.097862 
 C127  C     0.291390     -0.046287      0.083119 
 C128  C     0.267229      0.025523      0.134929 
 C129  C     0.325901      0.107918      0.135559 
 C130  C     0.293539      0.184848      0.180568 
 O131  O     0.247126     -0.374631     -0.115150 
 C132  C     0.199406     -0.455952     -0.102808 
 C133  C     0.233635      0.472933     -0.151015 
 C134  C     0.185993      0.382680     -0.151568 
 C135  C     0.224756      0.314044     -0.200937 
 H136  H     0.351144     -0.257161      0.087551 
 H137  H     0.140558     -0.244735     -0.104762 
 H138  H     0.205226     -0.478396     -0.047750 
 H139  H     0.133197     -0.441848     -0.113736 
 H140  H     0.358259     -0.062275      0.086744 
 H141  H     0.278061     -0.022294      0.029356 
 H142  H     0.236829     -0.499062     -0.204613 
 H143  H     0.297929      0.458899     -0.133979 
 H144  H     0.203844      0.048658      0.121766 
 H145  H     0.263983     -0.004514      0.187854 
 H146  H     0.387769      0.086424      0.154591 
 H147  H     0.334997      0.133699      0.081849 
 H148  H     0.185087      0.353287     -0.098440 
 H149  H     0.120500      0.394919     -0.165959 
 H150  H     0.189595      0.249972     -0.200278 
 H151  H     0.226327      0.340102     -0.255051 
 H152  H     0.289279      0.298341     -0.185558 
 H153  H     0.337052      0.242552      0.180369 
 H154  H     0.233159      0.209836      0.161141 
 H155  H     0.284236      0.162428      0.234899 
 N156  N    -0.497027      0.499828      0.312453 
 C157  C     0.495522      0.406041      0.286968 
 C158  C     0.430755     -0.447742      0.285380 
 C159  C    -0.420232     -0.459603      0.283003 
 C160  C     0.427610     -0.448640      0.203898 
 H161  H     0.373382     -0.477076      0.307806 
 H162  H     0.435098     -0.377442      0.303576 
 C163  C     0.494261      0.405820      0.205387 
 H164  H    -0.452058      0.365174      0.307672 
 H165  H     0.438089      0.375173      0.308228 
 C166  C    -0.423630     -0.457777      0.201623 
 H167  H    -0.412559     -0.390332      0.302368 
 H168  H    -0.366214     -0.498810      0.302408 
 H169  H    -0.452768      0.366580      0.185585 
 H170  H     0.437129      0.372849      0.186049 
 H171  H     0.368964     -0.479174      0.185277 
 H172  H     0.429681     -0.378695      0.182288 
 H173  H    -0.369698     -0.493127      0.179620 
 N174  N     0.498640      0.499626      0.176317 
 H175  H    -0.420904     -0.387051      0.181798 
 C176  C    -0.317461     -0.239544      0.049598 
 C177  C    -0.322532     -0.301717     -0.004568 
 C178  C    -0.261973     -0.301805     -0.056984 
 C179  C    -0.199045     -0.236162     -0.057532 
 C180  C    -0.192898     -0.175020     -0.003044 
 C181  C    -0.252799     -0.174837      0.050209 
 O182  O    -0.261644     -0.365979     -0.107133 
 C183  C    -0.213955     -0.445254     -0.088410 
 C184  C    -0.222967      0.485215     -0.145374 
 C185  C    -0.164900      0.403120     -0.136100 
 C186  C    -0.180775      0.329520     -0.190020 
 O187  O    -0.243567     -0.113454      0.102419 
 C188  C    -0.315783     -0.072637      0.132487 
 C189  C    -0.338060      0.014448      0.092384 
 C190  C    -0.418535      0.058780      0.118453 
 C191  C    -0.435724      0.152677      0.085604 
 H192  H    -0.152844     -0.235800     -0.098971 
 H193  H    -0.363037     -0.242696      0.091645 
 H194  H    -0.369097     -0.119570      0.133807 
 H195  H    -0.299650     -0.057799      0.186966 
 H196  H    -0.148397     -0.425253     -0.081311 
 H197  H    -0.236469     -0.473494     -0.038191 
 H198  H    -0.285872      0.062883      0.096403 
 H199  H    -0.344851      0.000132      0.036467 
 H200  H    -0.287745      0.460966     -0.145209 
 H201  H    -0.212577     -0.482466     -0.196922 
 H202  H    -0.099642      0.425844     -0.139173 
 H203  H    -0.172428      0.373743     -0.083232 
 H204  H    -0.471632      0.013515      0.107879 
 H205  H    -0.415144      0.065204      0.175498 
 H206  H    -0.495022      0.180707      0.103705 
 H207  H    -0.386553      0.201062      0.099583 
 H208  H    -0.438754      0.150435      0.028424 
 H209  H    -0.137925      0.272067     -0.182026 
 H210  H    -0.244621      0.302879     -0.186277 
 H211  H    -0.172720      0.355775     -0.243543 
 Cu212  Cu     0.013046      0.011472     -0.440337 
 Cu213  Cu     0.013818      0.016634      0.423759 
 O214  O    -0.085023      0.095050      0.428608 
 C215  C    -0.102121      0.132328      0.486043 
 O216  O    -0.068371      0.113874     -0.454885 
 O217  O     0.088530      0.125046      0.438272 
 C218  C     0.123094      0.139198      0.497220 
 O219  O     0.104491      0.099308     -0.445482 
 O220  O    -0.062681     -0.090611      0.433285 
 C221  C    -0.094899     -0.113566      0.491772 
 O222  O    -0.077210     -0.078604     -0.449841 
 O223  O     0.112429     -0.063026      0.433759 
 C224  C     0.133129     -0.100883      0.491551 
 O225  O     0.097431     -0.087729     -0.450262 
 Cu226  Cu    -0.481415     -0.491164     -0.439193 
 Cu227  Cu    -0.489233     -0.486727      0.425152 
 O228  O     0.436437     -0.379254      0.436871 
 C229  C     0.403385     -0.364004      0.495792 
 O230  O     0.425652     -0.401540     -0.446601 
 O231  O    -0.390240     -0.406362      0.431787 
 C232  C    -0.366141     -0.373477      0.489361 
 O233  O    -0.396947     -0.392863     -0.450954 
 O234  O     0.411554      0.435666      0.436721 
 C235  C     0.394024      0.398449      0.495314 
 O236  O     0.434254      0.409277     -0.447830 
 O237  O    -0.415591      0.403700      0.434524 
 C238  C    -0.375810      0.385232      0.490800 
 O239  O    -0.389107      0.420647     -0.450229 
 C240  C    -0.231701      0.340141     -0.475485 
 C241  C    -0.304937      0.319196      0.487920 
 C242  C    -0.311070      0.239537      0.449181 
 C243  C    -0.241743      0.182237      0.444897 
 C244  C    -0.169814      0.201950      0.483068 
 C245  C    -0.163127      0.281617     -0.478975 
 O246  O    -0.384663      0.220526      0.416174 
 C247  C    -0.412194      0.127817      0.411392 
 C248  C    -0.452580      0.094367      0.479447 
 C249  C    -0.393072      0.072637     -0.459045 
 C250  C    -0.336472     -0.009832     -0.469788 
 O251  O    -0.086490      0.300755     -0.451716 
 C252  C    -0.081342      0.339592     -0.384369 
 C253  C     0.011140      0.347121     -0.367570 
 C254  C     0.030326      0.373244     -0.292178 
 C255  C    -0.010092      0.461999     -0.269866 
 H256  H    -0.244031      0.121044      0.413844 
 H257  H    -0.226682      0.403281     -0.447018 
 H258  H    -0.111454      0.406656     -0.384878 
 H259  H    -0.113943      0.294801     -0.346665 
 H260  H    -0.458028      0.127684      0.368564 
 H261  H    -0.361751      0.082513      0.395525 
 H262  H     0.041920      0.282122     -0.378205 
 H263  H     0.040263      0.396782     -0.403556 
 H264  H    -0.497735      0.145864      0.495821 
 H265  H    -0.489583      0.033053      0.468965 
 H266  H    -0.354811      0.132608     -0.447530 
 H267  H    -0.430721      0.060062     -0.411962 
 H268  H     0.011102      0.317702     -0.256408 
 H269  H     0.098301      0.379186     -0.286611 
 H270  H     0.008148      0.478301     -0.216244 
 H271  H     0.008212     -0.480430     -0.303645 
 H272  H    -0.078330      0.457711     -0.271743 
 H273  H    -0.295351     -0.000360      0.485043 
 H274  H    -0.296090     -0.022209     -0.424048 
 H275  H    -0.373112     -0.071921     -0.477790 
 N276  N     0.006153      0.014301     -0.190371 
 C277  C     0.064697     -0.053699     -0.217509 
 C278  C    -0.077752     -0.004040     -0.219082 
 C279  C     0.032970      0.104698     -0.216833 
 C280  C    -0.076753     -0.001641     -0.300672 
 H281  H    -0.099842     -0.070557     -0.199167 
 H282  H    -0.120910      0.047451     -0.199514 
 C283  C     0.066150     -0.050246     -0.298997 
 H284  H     0.127435     -0.040808     -0.195983 
 H285  H     0.045867     -0.121656     -0.198442 
 C286  C     0.032715      0.108121     -0.298435 
 H287  H    -0.008554      0.156901     -0.195842 
 H288  H     0.095997      0.118981     -0.196631 
 H289  H     0.129426     -0.034523     -0.317958 
 H290  H     0.049011     -0.116862     -0.320018 
 H291  H    -0.097360     -0.067274     -0.321162 
 H292  H    -0.120652      0.049729     -0.321653 
 H293  H     0.094896      0.127058     -0.318215 
 N294  N     0.007860      0.019453     -0.326836 
 H295  H    -0.011234      0.159961     -0.318353 
 C296  C     0.191111      0.278712      0.449231 
 C297  C     0.191636      0.208465      0.499516 
 C298  C     0.255869      0.201895     -0.450352 
 C299  C     0.319426      0.267415     -0.450388 
 C300  C     0.320080      0.336162      0.498087 
 C301  C     0.254886      0.343744      0.449075 
 O302  O     0.255175      0.130929     -0.402989 
 C303  C     0.333466      0.097172     -0.377110 
 C304  C     0.318160      0.004207     -0.343424 
 C305  C     0.398205     -0.042810     -0.317292 
 C306  C     0.382533     -0.136930     -0.284103 
 O307  O     0.254749      0.410745      0.398683 
 C308  C     0.187249      0.474255      0.401196 
 C309  C     0.179322     -0.473305      0.332058 
 C310  C     0.148480      0.470778      0.269900 
 C311  C     0.205728      0.392513      0.249334 
 H312  H     0.369723      0.262935     -0.411878 
 H313  H     0.142151      0.283043      0.409489 
 H314  H     0.128350      0.439195      0.413784 
 H315  H     0.201081     -0.478987      0.443853 
 H316  H     0.377768      0.092434     -0.420631 
 H317  H     0.359111      0.144485     -0.338745 
 H318  H     0.135566     -0.416836      0.339452 
 H319  H     0.239405     -0.441110      0.319112 
 H320  H     0.274743      0.011025     -0.299557 
 H321  H     0.286629     -0.039484     -0.381432 
 H322  H     0.441594     -0.049462     -0.361212 
 H323  H     0.429766      0.000680     -0.279316 
 H324  H     0.085982      0.443658      0.281709 
 H325  H     0.140237     -0.482921      0.224521 
 H326  H     0.181727      0.358575      0.202914 
 H327  H     0.268945      0.416697      0.237357 
 H328  H     0.210679      0.340313      0.290902 
 H329  H     0.440990     -0.167998     -0.265439 
 H330  H     0.340184     -0.133387     -0.239386 
 H331  H     0.354484     -0.183134     -0.321918 
 C332  C     0.315924     -0.247692      0.434274 
 C333  C     0.332385     -0.297051      0.496004 
 C334  C     0.282821     -0.283335     -0.444880 
 C335  C     0.222705     -0.214275     -0.445917 
 C336  C     0.205177     -0.166269      0.492005 
 C337  C     0.252471     -0.182465      0.432112 
 O338  O     0.293638     -0.338216     -0.387264 
 C339  C     0.222118     -0.365966     -0.347194 
 C340  C     0.161678     -0.425732     -0.388109 
 C341  C     0.104104     -0.375169     -0.440663 
 C342  C     0.030880     -0.431796     -0.467657 
 O343  O     0.235074     -0.138862      0.370298 
 C344  C     0.300972     -0.084708      0.341262 
 C345  C     0.297506      0.010319      0.370650 
 C346  C     0.370323      0.070395      0.346132 
 C347  C     0.364723      0.168100      0.371435 
 H348  H     0.187242     -0.200783     -0.398869 
 H349  H     0.351251     -0.260039      0.386931 
 H350  H     0.361775     -0.116235      0.352609 
 H351  H     0.292580     -0.083145      0.284291 
 H352  H     0.247004     -0.404913     -0.302147 
 H353  H     0.190450     -0.306640     -0.325746 
 H354  H     0.238030      0.042674      0.355592 
 H355  H     0.297651      0.006285      0.428135 
 H356  H     0.197106     -0.478027     -0.415482 
 H357  H     0.123034     -0.462940     -0.350026 
 H358  H     0.079090     -0.313773     -0.416685 
 H359  H     0.140868     -0.351802     -0.485874 
 H360  H     0.428785      0.039619      0.364979 
 H361  H     0.373644      0.070482      0.288848 
 H362  H     0.416834      0.209987      0.352211 
 H363  H     0.306767      0.200916      0.353570 
 H364  H     0.365864      0.169818      0.428666 
 H365  H    -0.011363     -0.452237     -0.425254 
 H366  H    -0.006168     -0.392580      0.493871 
 H367  H     0.052393     -0.493471     -0.493110 
 N368  N    -0.490845     -0.498904     -0.189075 
 C369  C    -0.457482      0.414903     -0.215628 
 C370  C     0.425560     -0.486456     -0.220344 
 C371  C    -0.437055     -0.423567     -0.214619 
 C372  C     0.430994     -0.474626     -0.301202 
 H373  H     0.388591      0.452591     -0.207218 
 H374  H     0.394259     -0.427841     -0.197277 
 C375  C    -0.459130      0.415421     -0.297287 
 H376  H    -0.393292      0.405955     -0.196196 
 H377  H    -0.493925      0.357430     -0.193942 
 C378  C    -0.427403     -0.425642     -0.295701 
 H379  H    -0.465100     -0.358914     -0.198851 
 H380  H    -0.375659     -0.427939     -0.188959 
 H381  H    -0.397486      0.397071     -0.317782 
 H382  H     0.496271      0.364482     -0.316468 
 H383  H     0.385407      0.481345     -0.327447 
 H384  H     0.415841     -0.404062     -0.316550 
 H385  H    -0.362846     -0.442700     -0.309879 
 N386  N    -0.483864     -0.494205     -0.325632 
 H387  H    -0.440774     -0.358384     -0.319524 
 C388  C    -0.245794     -0.301038     -0.451496 
 C389  C    -0.294528     -0.307656      0.488064 
 C390  C    -0.277101     -0.253132      0.428968 
 C391  C    -0.209347     -0.193107      0.430022 
 C392  C    -0.161423     -0.185394      0.490860 
 C393  C    -0.178035     -0.240600     -0.450117 
 O394  O    -0.325508     -0.259372      0.370524 
 C395  C    -0.361350     -0.176240      0.344666 
 C396  C    -0.430326     -0.200801      0.293784 
 C397  C    -0.479650     -0.118638      0.265963 
 C398  C     0.453413     -0.143907      0.212380 
 O399  O    -0.126236     -0.233947     -0.393421 
 C400  C    -0.139629     -0.292510     -0.334008 
 C401  C    -0.070164     -0.274862     -0.281863 
 C402  C    -0.080982     -0.328154     -0.213065 
 C403  C    -0.010846     -0.311710     -0.160216 
 H404  H    -0.195770     -0.151523      0.383715 
 H405  H    -0.260434     -0.343724     -0.405905 
 H406  H    -0.200996     -0.277726     -0.311368 
 H407  H    -0.138840     -0.363898     -0.350024 
 H408  H    -0.386079     -0.137854      0.388715 
 H409  H    -0.313130     -0.134547      0.318676 
 H410  H    -0.009636     -0.291593     -0.305172 
 H411  H    -0.068094     -0.202080     -0.270672 
 H412  H    -0.403473     -0.237353      0.249735 
 H413  H    -0.473695     -0.248205      0.320203 
 H414  H     0.491197     -0.084677      0.310101 
 H415  H    -0.436565     -0.068624      0.242632 
 H416  H    -0.141334     -0.309985     -0.190535 
 H417  H    -0.085242     -0.400871     -0.223644 
 H418  H    -0.019299     -0.353197     -0.112498 
 H419  H     0.050222     -0.328577     -0.182058 
 H420  H    -0.009012     -0.240489     -0.144439 
 H421  H     0.418538     -0.083525      0.194838 
 H422  H     0.480930     -0.174545      0.166090 
 H423  H     0.408385     -0.192816      0.234487 
loop_  
_geom_bond_atom_site_label_1  
_geom_bond_atom_site_label_2  
Cu0   Cu1 
Cu0   O4 
Cu0   O7 
Cu0   O10 
Cu0   O13 
Cu0   N82 
Cu1   O2 
Cu1   O5 
Cu1   O8 
Cu1   O11 
Cu1   N276 
O2   C3 
C3   O4 
C3   C32 
O5   C6 
C6   O7 
C6   C85 
O8   C9 
C9   O10 
C9   C180 
O11   C12 
C12   O13 
C12   C121 
Cu14   Cu15 
Cu14   O18 
Cu14   O21 
Cu14   O24 
Cu14   O27 
Cu14   N174 
Cu15   O16 
Cu15   O19 
Cu15   O22 
Cu15   O25 
Cu15   N368 
O16   C17 
C17   O18 
C17   C124 
O19   C20 
C20   O21 
C20   C177 
O22   C23 
C23   O24 
C23   C88 
O25   C26 
C26   O27 
C26   C29 
C28   C29 
C28   C33 
C28   H45 
C29   C30 
C30   C31 
C30   O34 
C31   C32 
C31   H44 
C32   C33 
C33   O39 
O34   C35 
C35   C36 
C35   H48 
C35   H49 
C36   C37 
C36   H52 
C36   H53 
C37   C38 
C37   H54 
C37   H55 
C38   H61 
C38   H62 
C38   H63 
O39   C40 
C40   C41 
C40   H46 
C40   H47 
C41   C42 
C41   H50 
C41   H51 
C42   C43 
C42   H56 
C42   H57 
C43   H58 
C43   H59 
C43   H60 
N64   C65 
N64   C66 
N64   C67 
N64   Cu213 
C65   C71 
C65   H72 
C65   H73 
C66   C68 
C66   H69 
C66   H70 
C67   C74 
C67   H75 
C67   H76 
C68   H79 
C68   H80 
C68   N82 
C71   H77 
C71   H78 
C71   N82 
C74   H81 
C74   N82 
C74   H83 
C84   C85 
C84   C89 
C84   H101 
C85   C86 
C86   C87 
C86   O90 
C87   C88 
C87   H100 
C88   C89 
C89   O95 
O90   C91 
C91   C92 
C91   H104 
C91   H105 
C92   C93 
C92   H108 
C92   H109 
C93   C94 
C93   H110 
C93   H111 
C94   H117 
C94   H118 
C94   H119 
O95   C96 
C96   C97 
C96   H102 
C96   H103 
C97   C98 
C97   H106 
C97   H107 
C98   C99 
C98   H112 
C98   H113 
C99   H114 
C99   H115 
C99   H116 
C120   C121 
C120   C125 
C120   H137 
C121   C122 
C122   C123 
C122   O126 
C123   C124 
C123   H136 
C124   C125 
C125   O131 
O126   C127 
C127   C128 
C127   H140 
C127   H141 
C128   C129 
C128   H144 
C128   H145 
C129   C130 
C129   H146 
C129   H147 
C130   H153 
C130   H154 
C130   H155 
O131   C132 
C132   C133 
C132   H138 
C132   H139 
C133   C134 
C133   H142 
C133   H143 
C134   C135 
C134   H148 
C134   H149 
C135   H150 
C135   H151 
C135   H152 
N156   C157 
N156   C158 
N156   C159 
N156   Cu227 
C157   C163 
C157   H164 
C157   H165 
C158   C160 
C158   H161 
C158   H162 
C159   C166 
C159   H167 
C159   H168 
C160   H171 
C160   H172 
C160   N174 
C163   H169 
C163   H170 
C163   N174 
C166   H173 
C166   N174 
C166   H175 
C176   C177 
C176   C181 
C176   H193 
C177   C178 
C178   C179 
C178   O182 
C179   C180 
C179   H192 
C180   C181 
C181   O187 
O182   C183 
C183   C184 
C183   H196 
C183   H197 
C184   C185 
C184   H200 
C184   H201 
C185   C186 
C185   H202 
C185   H203 
C186   H209 
C186   H210 
C186   H211 
O187   C188 
C188   C189 
C188   H194 
C188   H195 
C189   C190 
C189   H198 
C189   H199 
C190   C191 
C190   H204 
C190   H205 
C191   H206 
C191   H207 
C191   H208 
Cu212   Cu213 
Cu212   O216 
Cu212   O219 
Cu212   O222 
Cu212   O225 
Cu212   N294 
Cu213   O214 
Cu213   O217 
Cu213   O220 
Cu213   O223 
O214   C215 
C215   O216 
C215   C244 
O217   C218 
C218   O219 
C218   C297 
O220   C221 
C221   O222 
C221   C392 
O223   C224 
C224   O225 
C224   C336 
Cu226   Cu227 
Cu226   O230 
Cu226   O233 
Cu226   O236 
Cu226   O239 
Cu226   N386 
Cu227   O228 
Cu227   O231 
Cu227   O234 
Cu227   O237 
O228   C229 
C229   O230 
C229   C333 
O231   C232 
C232   O233 
C232   C389 
O234   C235 
C235   O236 
C235   C300 
O237   C238 
C238   O239 
C238   C241 
C240   C241 
C240   C245 
C240   H257 
C241   C242 
C242   C243 
C242   O246 
C243   C244 
C243   H256 
C244   C245 
C245   O251 
O246   C247 
C247   C248 
C247   H260 
C247   H261 
C248   C249 
C248   H264 
C248   H265 
C249   C250 
C249   H266 
C249   H267 
C250   H273 
C250   H274 
C250   H275 
O251   C252 
C252   C253 
C252   H258 
C252   H259 
C253   C254 
C253   H262 
C253   H263 
C254   C255 
C254   H268 
C254   H269 
C255   H270 
C255   H271 
C255   H272 
N276   C277 
N276   C278 
N276   C279 
C277   C283 
C277   H284 
C277   H285 
C278   C280 
C278   H281 
C278   H282 
C279   C286 
C279   H287 
C279   H288 
C280   H291 
C280   H292 
C280   N294 
C283   H289 
C283   H290 
C283   N294 
C286   H293 
C286   N294 
C286   H295 
C296   C297 
C296   C301 
C296   H313 
C297   C298 
C298   C299 
C298   O302 
C299   C300 
C299   H312 
C300   C301 
C301   O307 
O302   C303 
C303   C304 
C303   H316 
C303   H317 
C304   C305 
C304   H320 
C304   H321 
C305   C306 
C305   H322 
C305   H323 
C306   H329 
C306   H330 
C306   H331 
O307   C308 
C308   C309 
C308   H314 
C308   H315 
C309   C310 
C309   H318 
C309   H319 
C310   C311 
C310   H324 
C310   H325 
C311   H326 
C311   H327 
C311   H328 
C332   C333 
C332   C337 
C332   H349 
C333   C334 
C334   C335 
C334   O338 
C335   C336 
C335   H348 
C336   C337 
C337   O343 
O338   C339 
C339   C340 
C339   H352 
C339   H353 
C340   C341 
C340   H356 
C340   H357 
C341   C342 
C341   H358 
C341   H359 
C342   H365 
C342   H366 
C342   H367 
O343   C344 
C344   C345 
C344   H350 
C344   H351 
C345   C346 
C345   H354 
C345   H355 
C346   C347 
C346   H360 
C346   H361 
C347   H362 
C347   H363 
C347   H364 
N368   C369 
N368   C370 
N368   C371 
C369   C375 
C369   H376 
C369   H377 
C370   C372 
C370   H373 
C370   H374 
C371   C378 
C371   H379 
C371   H380 
C372   H383 
C372   H384 
C372   N386 
C375   H381 
C375   H382 
C375   N386 
C378   H385 
C378   N386 
C378   H387 
C388   C389 
C388   C393 
C388   H405 
C389   C390 
C390   C391 
C390   O394 
C391   C392 
C391   H404 
C392   C393 
C393   O399 
O394   C395 
C395   C396 
C395   H408 
C395   H409 
C396   C397 
C396   H412 
C396   H413 
C397   C398 
C397   H414 
C397   H415 
C398   H421 
C398   H422 
C398   H423 
O399   C400 
C400   C401 
C400   H406 
C400   H407 
C401   C402 
C401   H410 
C401   H411 
C402   C403 
C402   H416 
C402   H417 
C403   H418 
C403   H419 
C403   H420 
  
#END  
