data_
_symmetry_cell_setting           triclinic 
_symmetry_space_group_name_H-M   'P 1' 
_symmetry_Int_Tables_number      1 
loop_ 
_symmetry_equiv_pos_site_id 
_symmetry_equiv_pos_as_xyz 
1 x,y,z 
_cell_length_a             10.622845        
_cell_length_b             18.612412        
_cell_length_c             18.998060        
_cell_angle_alpha          92.217587        
_cell_angle_beta           92.402837        
_cell_angle_gamma          90.367926        
loop_  
_atom_site_label   
_atom_site_type_symbol  
_atom_site_fract_x  
_atom_site_fract_y  
_atom_site_fract_z 
 Cu0  Cu    -0.013391      0.004080      0.077852 
 Cu1  Cu    -0.009908     -0.000749     -0.059158 
 O2  O    -0.151758      0.069687     -0.051821 
 C3  C    -0.173538      0.101340      0.007115 
 O4  O    -0.141822      0.078762      0.067569 
 O5  O     0.105846      0.082057     -0.046016 
 C6  C     0.133561      0.111839      0.014049 
 O7  O     0.114052      0.084245      0.073008 
 O8  O    -0.123251     -0.084923     -0.057525 
 C9  C    -0.156684     -0.107684      0.001230 
 O10  O    -0.142521     -0.073823      0.060594 
 O11  O     0.132321     -0.070238     -0.044185 
 C12  C     0.148743     -0.099534      0.015033 
 O13  O     0.114758     -0.072526      0.073649 
 Cu14  Cu    -0.496670     -0.495355      0.068878 
 Cu15  Cu     0.493049      0.497762     -0.068361 
 O16  O     0.388834     -0.413830     -0.060152 
 C17  C     0.359153     -0.386948     -0.000518 
 O18  O     0.374792     -0.417563      0.058048 
 O19  O    -0.354408     -0.437596     -0.055112 
 C20  C    -0.336267     -0.400986      0.002519 
 O21  O    -0.367791     -0.420353      0.062901 
 O22  O     0.345360      0.431312     -0.060888 
 C23  C     0.331603      0.402551     -0.001884 
 O24  O     0.371091      0.429616      0.057503 
 O25  O    -0.402710      0.410572     -0.058619 
 C26  C    -0.362600      0.390478      0.001482 
 O27  O    -0.370359      0.426473      0.059530 
 C28  C    -0.379433      0.261345     -0.035195 
 C29  C    -0.312515      0.315657      0.003837 
 C30  C    -0.203080      0.300572      0.044244 
 C31  C    -0.161274      0.229316      0.045983 
 C32  C    -0.227680      0.175207      0.006666 
 C33  C    -0.338704      0.189846     -0.032314 
 O34  O    -0.141225      0.356239      0.080583 
 C35  C    -0.008046      0.349497      0.093622 
 C36  C     0.049612      0.418680      0.126719 
 C37  C     0.053900      0.482519      0.077796 
 C38  C    -0.075361     -0.486136      0.058609 
 O39  O    -0.402223      0.132567     -0.064849 
 C40  C     0.470072      0.142461     -0.089507 
 C41  C     0.401889      0.070720     -0.105006 
 C42  C     0.471853      0.014780     -0.150247 
 C43  C    -0.433952     -0.030575     -0.108167 
 H44  H    -0.076426      0.215726      0.077017 
 H45  H    -0.464095      0.274583     -0.066539 
 H46  H     0.420445      0.173709     -0.048988 
 H47  H     0.470854      0.174137     -0.137150 
 H48  H     0.010148      0.305014      0.129019 
 H49  H     0.034542      0.335842      0.043085 
 H50  H     0.378303      0.046772     -0.055045 
 H51  H     0.310654      0.081994     -0.131699 
 H52  H    -0.001506      0.434674      0.173969 
 H53  H     0.146549      0.407284      0.145608 
 H54  H     0.114459     -0.474895      0.103066 
 H55  H     0.100885      0.466152      0.029297 
 H56  H     0.402255     -0.021423     -0.178007 
 H57  H    -0.478576      0.041958     -0.191481 
 H58  H    -0.361313      0.002583     -0.079548 
 H59  H    -0.480999     -0.062285     -0.069299 
 H60  H    -0.385224     -0.068364     -0.143075 
 H61  H    -0.133374      0.476453      0.024675 
 H62  H    -0.128130     -0.472989      0.105760 
 H63  H    -0.065834     -0.436408      0.030165 
 N64  N    -0.032485     -0.002644      0.327255 
 C65  C    -0.109911     -0.062524      0.295087 
 C66  C    -0.086067      0.065783      0.302969 
 C67  C     0.096522     -0.009111      0.301298 
 C68  C    -0.080857      0.069381      0.221143 
 H69  H    -0.184279      0.069525      0.319308 
 H70  H    -0.034403      0.111424      0.329529 
 C71  C    -0.118063     -0.057852      0.213084 
 H72  H    -0.067067     -0.113774      0.310378 
 H73  H    -0.204453     -0.061018      0.316918 
 C74  C     0.093613     -0.011913      0.219389 
 H75  H     0.152750      0.037564      0.321969 
 H76  H     0.142195     -0.057619      0.321525 
 H77  H    -0.090653     -0.109261      0.187602 
 H78  H    -0.215563     -0.047218      0.194235 
 H79  H    -0.174802      0.081293      0.197722 
 H80  H    -0.017118      0.112999      0.206766 
 H81  H     0.125541     -0.065051      0.200083 
 N82  N    -0.035540      0.000521      0.190309 
 H83  H     0.159069      0.028325      0.200192 
 C84  C     0.176569      0.220561     -0.052688 
 C85  C     0.185205      0.187152      0.012269 
 C86  C     0.237687      0.225232      0.071751 
 C87  C     0.280829      0.295668      0.065438 
 C88  C     0.273128      0.328883      0.000408 
 C89  C     0.216661      0.291694     -0.058582 
 O90  O     0.246269      0.199000      0.137732 
 C91  C     0.345020      0.148297      0.149264 
 C92  C     0.411676      0.165322      0.220355 
 C93  C     0.478658      0.238852      0.227365 
 C94  C    -0.416054      0.247665      0.175352 
 O95  O     0.201065      0.319697     -0.123635 
 C96  C     0.103882      0.372576     -0.130421 
 C97  C    -0.027513      0.339110     -0.130819 
 C98  C    -0.059508      0.289755     -0.195848 
 C99  C    -0.188678      0.253230     -0.192995 
 H100  H     0.322837      0.322834      0.112600 
 H101  H     0.134495      0.193485     -0.099854 
 H102  H     0.115660      0.414068     -0.087753 
 H103  H     0.117901      0.398658     -0.180406 
 H104  H     0.301772      0.094568      0.148997 
 H105  H     0.411309      0.148444      0.106173 
 H106  H    -0.038147      0.308813     -0.082728 
 H107  H    -0.097573      0.382451     -0.128182 
 H108  H     0.342484      0.161926      0.261739 
 H109  H     0.481499      0.123144      0.230311 
 H110  H     0.408416      0.281498      0.220807 
 H111  H    -0.481376      0.246688      0.281549 
 H112  H    -0.057219      0.321399     -0.243543 
 H113  H     0.013751      0.248593     -0.201203 
 H114  H    -0.208854      0.218415     -0.240155 
 H115  H    -0.193341      0.219697     -0.146814 
 H116  H    -0.264215      0.293125     -0.189605 
 H117  H    -0.344615      0.205552      0.180883 
 H118  H    -0.452897      0.244960      0.120390 
 H119  H    -0.367585      0.299756      0.183999 
 C120  C     0.238208     -0.291507      0.061598 
 C121  C     0.306753     -0.311950      0.002781 
 C122  C     0.329628     -0.262137     -0.049082 
 C123  C     0.275409     -0.193723     -0.044094 
 C124  C     0.206124     -0.173394      0.014210 
 C125  C     0.189572     -0.221615      0.068397 
 O126  O     0.405181     -0.279779     -0.103629 
 C127  C     0.493857     -0.225587     -0.122003 
 C128  C    -0.417082     -0.257374     -0.175038 
 C129  C    -0.323708     -0.201954     -0.200493 
 C130  C    -0.224097     -0.234931     -0.247328 
 O131  O     0.128471     -0.197389      0.126709 
 C132  C     0.072695     -0.246408      0.172947 
 C133  C    -0.051733     -0.273833      0.139400 
 C134  C    -0.125604     -0.324179      0.185012 
 C135  C    -0.155126     -0.291053      0.257466 
 H136  H     0.289023     -0.155344     -0.085138 
 H137  H     0.223919     -0.330207      0.102324 
 H138  H     0.136673     -0.290530      0.186016 
 H139  H     0.057301     -0.215579      0.222393 
 H140  H     0.445073     -0.179401     -0.144410 
 H141  H    -0.453654     -0.205806     -0.073899 
 H142  H    -0.110752     -0.227151      0.127415 
 H143  H    -0.035378     -0.301677      0.088449 
 H144  H    -0.364531     -0.301556     -0.150917 
 H145  H    -0.471504     -0.280899     -0.220939 
 H146  H    -0.375676     -0.160631     -0.229420 
 H147  H    -0.276283     -0.174048     -0.154524 
 H148  H    -0.214493     -0.339544      0.156356 
 H149  H    -0.073493     -0.374484      0.191176 
 H150  H    -0.069286     -0.280170      0.290479 
 H151  H    -0.205059     -0.239963      0.252008 
 H152  H    -0.214797     -0.327176      0.286388 
 H153  H    -0.161715     -0.192779     -0.265276 
 H154  H    -0.165793     -0.273327     -0.218300 
 H155  H    -0.266816     -0.263507     -0.294169 
 N156  N    -0.460718      0.495615      0.319034 
 C157  C     0.448199      0.442815      0.286087 
 C158  C    -0.494567     -0.432056      0.295097 
 C159  C    -0.334498      0.478287      0.293720 
 C160  C    -0.492001     -0.429074      0.213319 
 H161  H     0.410291     -0.419204      0.312137 
 H162  H    -0.429621     -0.391784      0.321037 
 C163  C     0.446101      0.446628      0.204328 
 H164  H     0.474496      0.388572      0.302641 
 H165  H     0.353486      0.453540      0.305410 
 C166  C    -0.334837      0.479549      0.211461 
 H167  H    -0.266210     -0.482428      0.318056 
 H168  H    -0.306181      0.425160      0.312256 
 H169  H     0.466908      0.393663      0.179845 
 H170  H     0.351299      0.462000      0.184632 
 H171  H     0.415700     -0.411938      0.191462 
 H172  H    -0.421934     -0.389299      0.197896 
 H173  H    -0.309381      0.426459      0.188841 
 N174  N    -0.460539      0.499669      0.182213 
 H175  H    -0.264300     -0.481816      0.194470 
 C176  C    -0.147762     -0.235071     -0.042163 
 C177  C    -0.206241     -0.183159      0.000482 
 C178  C    -0.306096     -0.201625      0.042417 
 C179  C    -0.345381     -0.273685      0.042652 
 C180  C    -0.287117     -0.325593      0.000189 
 C181  C    -0.186974     -0.307187     -0.041484 
 O182  O    -0.362269     -0.148566      0.081698 
 C183  C    -0.488484     -0.161849      0.101660 
 C184  C     0.451219     -0.094078      0.131827 
 C185  C     0.440231     -0.031662      0.081515 
 C186  C    -0.440009      0.014492      0.079340 
 O187  O    -0.131092     -0.360521     -0.080265 
 C188  C     0.003234     -0.356830     -0.084197 
 C189  C     0.052675     -0.429027     -0.111153 
 C190  C     0.028525     -0.445908     -0.190370 
 C191  C    -0.110913     -0.450898     -0.214109 
 H192  H    -0.422093     -0.289678      0.075412 
 H193  H    -0.070662     -0.219831     -0.074948 
 H194  H     0.028019     -0.313830     -0.119244 
 H195  H     0.044785     -0.342887     -0.031319 
 H196  H     0.456448     -0.182395      0.054853 
 H197  H    -0.486982     -0.203857      0.140844 
 H198  H     0.154874     -0.430803     -0.099203 
 H199  H     0.011515     -0.472267     -0.081320 
 H200  H     0.355857     -0.107819      0.147812 
 H201  H    -0.495905     -0.075754      0.180221 
 H202  H     0.413077     -0.052912      0.028191 
 H203  H     0.361252      0.002388      0.097091 
 H204  H     0.076904     -0.405285     -0.219954 
 H205  H     0.073972     -0.496935     -0.204485 
 H206  H    -0.160255     -0.490125     -0.183255 
 H207  H    -0.157945     -0.398908     -0.207293 
 H208  H    -0.123036     -0.467868     -0.270023 
 H209  H    -0.360732     -0.016501      0.059209 
 H210  H    -0.454748      0.059758      0.044686 
 H211  H    -0.410795      0.036990      0.131845 
 Cu212  Cu     0.001068     -0.001264     -0.422600 
 Cu213  Cu    -0.011511     -0.007580      0.440216 
 O214  O    -0.159758      0.056741      0.453027 
 C215  C    -0.171949      0.091607     -0.488620 
 O216  O    -0.132042      0.071505     -0.428504 
 O217  O     0.095866      0.079994      0.447147 
 C218  C     0.134329      0.108232     -0.493679 
 O219  O     0.120950      0.080384     -0.434281 
 O220  O    -0.113805     -0.095501      0.448766 
 C221  C    -0.140490     -0.117643     -0.491029 
 O222  O    -0.123107     -0.082465     -0.432519 
 O223  O     0.137983     -0.071851      0.447519 
 C224  C     0.159390     -0.102317     -0.494325 
 O225  O     0.134589     -0.075059     -0.434041 
 Cu226  Cu    -0.497787      0.498534     -0.432893 
 Cu227  Cu    -0.489908      0.491823      0.430355 
 O228  O     0.405120     -0.419292      0.435238 
 C229  C     0.370606     -0.390393      0.492957 
 O230  O     0.385232     -0.418387     -0.447002 
 O231  O    -0.338061     -0.444387      0.446602 
 C232  C    -0.321470     -0.410596     -0.494073 
 O233  O    -0.358282     -0.431829     -0.435422 
 O234  O     0.358967      0.426124      0.434510 
 C235  C     0.336380      0.398475      0.493006 
 O236  O     0.363215      0.428073     -0.446688 
 O237  O    -0.387207      0.404113      0.440987 
 C238  C    -0.358683      0.381866     -0.497879 
 O239  O    -0.377556      0.415949     -0.439872 
 C240  C    -0.370443      0.253100      0.462848 
 C241  C    -0.308937      0.306869     -0.494742 
 C242  C    -0.205107      0.290602     -0.450283 
 C243  C    -0.162820      0.219566     -0.447944 
 C244  C    -0.224537      0.165928     -0.490155 
 C245  C    -0.330655      0.181556      0.467212 
 O246  O    -0.148108      0.344186     -0.409222 
 C247  C    -0.013282      0.343083     -0.403554 
 C248  C     0.033337      0.416609     -0.376033 
 C249  C    -0.025635      0.478725     -0.416420 
 C250  C     0.039682     -0.448988     -0.398842 
 O251  O    -0.390744      0.124602      0.432711 
 C252  C     0.479140      0.131658      0.412034 
 C253  C     0.413284      0.059020      0.415375 
 C254  C     0.487186     -0.005920      0.387140 
 C255  C    -0.480026     -0.001861      0.309701 
 H256  H    -0.081776      0.206306     -0.413707 
 H257  H    -0.450527      0.266545      0.427967 
 H258  H     0.434127      0.171009      0.447424 
 H259  H     0.473368      0.152021      0.358536 
 H260  H     0.018432      0.301183     -0.367611 
 H261  H     0.023292      0.330115     -0.455961 
 H262  H     0.390844      0.049979      0.470391 
 H263  H     0.321671      0.061235      0.386481 
 H264  H     0.013847      0.423851     -0.319741 
 H265  H     0.136415      0.418887     -0.379503 
 H266  H    -0.022861      0.466301     -0.473399 
 H267  H    -0.126226      0.482909     -0.404917 
 H268  H    -0.425610     -0.012075      0.419813 
 H269  H     0.431130     -0.054859      0.394161 
 H270  H    -0.418743      0.044561      0.301520 
 H271  H    -0.429159     -0.050149      0.292594 
 H272  H     0.434707      0.002415      0.275362 
 H273  H     0.042841     -0.436400     -0.341954 
 H274  H     0.137004     -0.449116     -0.416388 
 H275  H    -0.011152     -0.405478     -0.424740 
 N276  N    -0.024828      0.010950     -0.172446 
 C277  C    -0.150811     -0.008708     -0.203509 
 C278  C     0.009247      0.082650     -0.196929 
 C279  C     0.067220     -0.041216     -0.199352 
 C280  C     0.007681      0.082541     -0.279130 
 H281  H    -0.056633      0.122540     -0.175550 
 H282  H     0.103868      0.097540     -0.175101 
 C283  C    -0.150928     -0.009212     -0.285645 
 H284  H    -0.177661     -0.062079     -0.185732 
 H285  H    -0.220341      0.029833     -0.183370 
 C286  C     0.067141     -0.041563     -0.281426 
 H287  H     0.161783     -0.027316     -0.176451 
 H288  H     0.043171     -0.094931     -0.181281 
 H289  H    -0.178845     -0.062636     -0.308332 
 H290  H    -0.219934      0.029417     -0.306306 
 H291  H    -0.061039      0.121555     -0.299590 
 H292  H     0.100364      0.098932     -0.297104 
 H293  H     0.042335     -0.095539     -0.303743 
 N294  N    -0.024963      0.010198     -0.309633 
 H295  H     0.161867     -0.027997     -0.298917 
 C296  C     0.283484      0.290940     -0.440574 
 C297  C     0.284074      0.323107      0.493901 
 C298  C     0.239501      0.284096      0.433054 
 C299  C     0.196135      0.213345      0.438448 
 C300  C     0.193918      0.181662     -0.495843 
 C301  C     0.241369      0.220114     -0.435246 
 O302  O     0.240602      0.312454      0.367897 
 C303  C     0.121392      0.338837      0.342196 
 C304  C     0.059527      0.285132      0.288434 
 C305  C    -0.080837      0.299049      0.271280 
 C306  C    -0.165909      0.287699      0.333304 
 O307  O     0.245167      0.193860     -0.369121 
 C308  C     0.337673      0.139426     -0.356460 
 C309  C     0.408932      0.157290     -0.286858 
 C310  C     0.484247      0.228149     -0.284347 
 C311  C    -0.416747      0.230741     -0.340619 
 H312  H     0.163130      0.183855      0.390467 
 H313  H     0.318666      0.319220     -0.392344 
 H314  H     0.289502      0.087213     -0.353683 
 H315  H     0.402033      0.134796     -0.400398 
 H316  H     0.060984      0.350329      0.386970 
 H317  H     0.139997      0.390278      0.317829 
 H318  H     0.341888      0.158642     -0.244151 
 H319  H     0.474246      0.113074     -0.275989 
 H320  H     0.111892      0.285877      0.239640 
 H321  H     0.068376      0.230051      0.306748 
 H322  H    -0.092727      0.354067      0.252966 
 H323  H    -0.112807      0.262940      0.226697 
 H324  H     0.419197      0.273581     -0.289669 
 H325  H    -0.468574      0.235845     -0.231899 
 H326  H    -0.359051      0.279909     -0.334154 
 H327  H    -0.352573      0.184751     -0.337865 
 H328  H    -0.460682      0.229953     -0.394029 
 H329  H    -0.265511      0.295393      0.317713 
 H330  H    -0.156908      0.233021      0.352750 
 H331  H    -0.143434      0.325628      0.377894 
 C332  C     0.260087     -0.203180      0.438587 
 C333  C     0.208719     -0.178083     -0.498708 
 C334  C     0.201637     -0.223994     -0.442328 
 C335  C     0.256799     -0.292011     -0.446116 
 C336  C     0.311734     -0.316726      0.491951 
 C337  C     0.310174     -0.272841      0.433029 
 O338  O     0.143024     -0.200939     -0.383478 
 C339  C     0.045208     -0.245736     -0.359348 
 C340  C     0.089786     -0.285944     -0.294628 
 C341  C     0.135821     -0.238941     -0.230221 
 C342  C     0.247664     -0.189395     -0.242876 
 O343  O     0.361603     -0.297922      0.372078 
 C344  C     0.324442     -0.267538      0.306124 
 C345  C     0.403353     -0.203015      0.286652 
 C346  C    -0.453350     -0.214084      0.289574 
 C347  C    -0.393087     -0.212799      0.364409 
 H348  H     0.256642     -0.325233     -0.400141 
 H349  H     0.261502     -0.167615      0.394342 
 H350  H     0.332398     -0.310718      0.265394 
 H351  H     0.224020     -0.253354      0.307041 
 H352  H    -0.034264     -0.210335     -0.347624 
 H353  H     0.011540     -0.283541     -0.402162 
 H354  H     0.372974     -0.189966      0.232638 
 H355  H     0.382513     -0.154771      0.319110 
 H356  H     0.009748     -0.318918     -0.279508 
 H357  H     0.164529     -0.324073     -0.307969 
 H358  H     0.056628     -0.207198     -0.210807 
 H359  H     0.163864     -0.274443     -0.187440 
 H360  H    -0.431443     -0.265063      0.261623 
 H361  H    -0.409057     -0.171591      0.260154 
 H362  H    -0.423453     -0.258565      0.394488 
 H363  H    -0.290052     -0.215050      0.362927 
 H364  H    -0.416013     -0.163296      0.394462 
 H365  H     0.225566     -0.150850     -0.283511 
 H366  H     0.274418     -0.157068     -0.195171 
 H367  H     0.330069     -0.220245     -0.259141 
 N368  N     0.493097      0.494091     -0.182218 
 C369  C    -0.459854     -0.435988     -0.204893 
 C370  C    -0.425565      0.436366     -0.209901 
 C371  C     0.365130      0.482880     -0.214228 
 C372  C    -0.421448      0.438370     -0.291813 
 H373  H    -0.330282      0.442390     -0.185105 
 H374  H    -0.462510      0.384097     -0.194177 
 C375  C    -0.457137     -0.434564     -0.286830 
 H376  H     0.478507     -0.393377     -0.184463 
 H377  H    -0.364924     -0.425766     -0.181048 
 C378  C     0.367696      0.483501     -0.296296 
 H379  H     0.327765      0.431165     -0.197546 
 H380  H     0.303036     -0.474691     -0.193712 
 H381  H     0.483632     -0.390866     -0.307166 
 H382  H    -0.360526     -0.424178     -0.303169 
 H383  H    -0.324136      0.447256     -0.307875 
 H384  H    -0.453728      0.386625     -0.316553 
 H385  H     0.305131     -0.474585     -0.317201 
 N386  N     0.497329      0.496128     -0.319122 
 H387  H     0.332845      0.431579     -0.319435 
 C388  C    -0.127008     -0.245302      0.467002 
 C389  C    -0.185229     -0.193915     -0.489461 
 C390  C    -0.284530     -0.212922     -0.447310 
 C391  C    -0.323417     -0.285057     -0.447748 
 C392  C    -0.267669     -0.336011     -0.492438 
 C393  C    -0.168627     -0.317002      0.465350 
 O394  O    -0.342424     -0.160297     -0.408123 
 C395  C    -0.471082     -0.172966     -0.391502 
 C396  C     0.466081     -0.104428     -0.364731 
 C397  C     0.458809     -0.043700     -0.417203 
 C398  C    -0.423928      0.004764     -0.415088 
 O399  O    -0.118697     -0.368762      0.422074 
 C400  C     0.015879     -0.374421      0.422558 
 C401  C     0.046229     -0.449904      0.394632 
 C402  C     0.020424     -0.462183      0.314933 
 C403  C     0.121936     -0.429301      0.270966 
 H404  H    -0.400191     -0.301288     -0.415142 
 H405  H    -0.051231     -0.230005      0.433403 
 H406  H     0.055019     -0.332957      0.389782 
 H407  H     0.055388     -0.364999      0.476591 
 H408  H     0.477253     -0.194721     -0.439236 
 H409  H    -0.473689     -0.213693     -0.351044 
 H410  H     0.145557     -0.462254      0.407982 
 H411  H    -0.009922     -0.488954      0.422365 
 H412  H     0.369220     -0.118426     -0.351960 
 H413  H    -0.487083     -0.084458     -0.314903 
 H414  H     0.441475     -0.067063     -0.470874 
 H415  H     0.375718     -0.010720     -0.406406 
 H416  H     0.012794      0.479777      0.302346 
 H417  H    -0.072002     -0.439857      0.299933 
 H418  H     0.128314     -0.370880      0.280450 
 H419  H     0.214560     -0.452004      0.284167 
 H420  H     0.102122     -0.439866      0.214378 
 H421  H    -0.406674      0.030500     -0.362599 
 H422  H    -0.339436     -0.025515     -0.428660 
 H423  H    -0.434282      0.047869     -0.452632 
loop_  
_geom_bond_atom_site_label_1  
_geom_bond_atom_site_label_2  
Cu0   Cu1 
Cu0   O4 
Cu0   O7 
Cu0   O10 
Cu0   O13 
Cu0   N82 
Cu1   O2 
Cu1   O5 
Cu1   O8 
Cu1   O11 
Cu1   N276 
O2   C3 
C3   O4 
C3   C32 
O5   C6 
C6   O7 
C6   C85 
O8   C9 
C9   O10 
C9   C177 
O11   C12 
C12   O13 
C12   C124 
Cu14   Cu15 
Cu14   O18 
Cu14   O21 
Cu14   O24 
Cu14   O27 
Cu14   N174 
Cu15   O16 
Cu15   O19 
Cu15   O22 
Cu15   O25 
Cu15   N368 
O16   C17 
C17   O18 
C17   C121 
O19   C20 
C20   O21 
C20   C180 
O22   C23 
C23   O24 
C23   C88 
O25   C26 
C26   O27 
C26   C29 
C28   C29 
C28   C33 
C28   H45 
C29   C30 
C30   C31 
C30   O34 
C31   C32 
C31   H44 
C32   C33 
C33   O39 
O34   C35 
C35   C36 
C35   H48 
C35   H49 
C36   C37 
C36   H52 
C36   H53 
C37   C38 
C37   H54 
C37   H55 
C38   H61 
C38   H62 
C38   H63 
O39   C40 
C40   C41 
C40   H46 
C40   H47 
C41   C42 
C41   H50 
C41   H51 
C42   C43 
C42   H56 
C42   H57 
C43   H58 
C43   H59 
C43   H60 
N64   C65 
N64   C66 
N64   C67 
N64   Cu213 
C65   C71 
C65   H72 
C65   H73 
C66   C68 
C66   H69 
C66   H70 
C67   C74 
C67   H75 
C67   H76 
C68   H79 
C68   H80 
C68   N82 
C71   H77 
C71   H78 
C71   N82 
C74   H81 
C74   N82 
C74   H83 
C84   C85 
C84   C89 
C84   H101 
C85   C86 
C86   C87 
C86   O90 
C87   C88 
C87   H100 
C88   C89 
C89   O95 
O90   C91 
C91   C92 
C91   H104 
C91   H105 
C92   C93 
C92   H108 
C92   H109 
C93   C94 
C93   H110 
C93   H111 
C94   H117 
C94   H118 
C94   H119 
O95   C96 
C96   C97 
C96   H102 
C96   H103 
C97   C98 
C97   H106 
C97   H107 
C98   C99 
C98   H112 
C98   H113 
C99   H114 
C99   H115 
C99   H116 
C120   C121 
C120   C125 
C120   H137 
C121   C122 
C122   C123 
C122   O126 
C123   C124 
C123   H136 
C124   C125 
C125   O131 
O126   C127 
C127   C128 
C127   H140 
C127   H141 
C128   C129 
C128   H144 
C128   H145 
C129   C130 
C129   H146 
C129   H147 
C130   H153 
C130   H154 
C130   H155 
O131   C132 
C132   C133 
C132   H138 
C132   H139 
C133   C134 
C133   H142 
C133   H143 
C134   C135 
C134   H148 
C134   H149 
C135   H150 
C135   H151 
C135   H152 
N156   C157 
N156   C158 
N156   C159 
N156   Cu227 
C157   C163 
C157   H164 
C157   H165 
C158   C160 
C158   H161 
C158   H162 
C159   C166 
C159   H167 
C159   H168 
C160   H171 
C160   H172 
C160   N174 
C163   H169 
C163   H170 
C163   N174 
C166   H173 
C166   N174 
C166   H175 
C176   C177 
C176   C181 
C176   H193 
C177   C178 
C178   C179 
C178   O182 
C179   C180 
C179   H192 
C180   C181 
C181   O187 
O182   C183 
C183   C184 
C183   H196 
C183   H197 
C184   C185 
C184   H200 
C184   H201 
C185   C186 
C185   H202 
C185   H203 
C186   H209 
C186   H210 
C186   H211 
O187   C188 
C188   C189 
C188   H194 
C188   H195 
C189   C190 
C189   H198 
C189   H199 
C190   C191 
C190   H204 
C190   H205 
C191   H206 
C191   H207 
C191   H208 
Cu212   Cu213 
Cu212   O216 
Cu212   O219 
Cu212   O222 
Cu212   O225 
Cu212   N294 
Cu213   O214 
Cu213   O217 
Cu213   O220 
Cu213   O223 
O214   C215 
C215   O216 
C215   C244 
O217   C218 
C218   O219 
C218   C300 
O220   C221 
C221   O222 
C221   C389 
O223   C224 
C224   O225 
C224   C333 
Cu226   Cu227 
Cu226   O230 
Cu226   O233 
Cu226   O236 
Cu226   O239 
Cu226   N386 
Cu227   O228 
Cu227   O231 
Cu227   O234 
Cu227   O237 
O228   C229 
C229   O230 
C229   C336 
O231   C232 
C232   O233 
C232   C392 
O234   C235 
C235   O236 
C235   C297 
O237   C238 
C238   O239 
C238   C241 
C240   C241 
C240   C245 
C240   H257 
C241   C242 
C242   C243 
C242   O246 
C243   C244 
C243   H256 
C244   C245 
C245   O251 
O246   C247 
C247   C248 
C247   H260 
C247   H261 
C248   C249 
C248   H264 
C248   H265 
C249   C250 
C249   H266 
C249   H267 
C250   H273 
C250   H274 
C250   H275 
O251   C252 
C252   C253 
C252   H258 
C252   H259 
C253   C254 
C253   H262 
C253   H263 
C254   C255 
C254   H268 
C254   H269 
C255   H270 
C255   H271 
C255   H272 
N276   C277 
N276   C278 
N276   C279 
C277   C283 
C277   H284 
C277   H285 
C278   C280 
C278   H281 
C278   H282 
C279   C286 
C279   H287 
C279   H288 
C280   H291 
C280   H292 
C280   N294 
C283   H289 
C283   H290 
C283   N294 
C286   H293 
C286   N294 
C286   H295 
C296   C297 
C296   C301 
C296   H313 
C297   C298 
C298   C299 
C298   O302 
C299   C300 
C299   H312 
C300   C301 
C301   O307 
O302   C303 
C303   C304 
C303   H316 
C303   H317 
C304   C305 
C304   H320 
C304   H321 
C305   C306 
C305   H322 
C305   H323 
C306   H329 
C306   H330 
C306   H331 
O307   C308 
C308   C309 
C308   H314 
C308   H315 
C309   C310 
C309   H318 
C309   H319 
C310   C311 
C310   H324 
C310   H325 
C311   H326 
C311   H327 
C311   H328 
C332   C333 
C332   C337 
C332   H349 
C333   C334 
C334   C335 
C334   O338 
C335   C336 
C335   H348 
C336   C337 
C337   O343 
O338   C339 
C339   C340 
C339   H352 
C339   H353 
C340   C341 
C340   H356 
C340   H357 
C341   C342 
C341   H358 
C341   H359 
C342   H365 
C342   H366 
C342   H367 
O343   C344 
C344   C345 
C344   H350 
C344   H351 
C345   C346 
C345   H354 
C345   H355 
C346   C347 
C346   H360 
C346   H361 
C347   H362 
C347   H363 
C347   H364 
N368   C369 
N368   C370 
N368   C371 
C369   C375 
C369   H376 
C369   H377 
C370   C372 
C370   H373 
C370   H374 
C371   C378 
C371   H379 
C371   H380 
C372   H383 
C372   H384 
C372   N386 
C375   H381 
C375   H382 
C375   N386 
C378   H385 
C378   N386 
C378   H387 
C388   C389 
C388   C393 
C388   H405 
C389   C390 
C390   C391 
C390   O394 
C391   C392 
C391   H404 
C392   C393 
C393   O399 
O394   C395 
C395   C396 
C395   H408 
C395   H409 
C396   C397 
C396   H412 
C396   H413 
C397   C398 
C397   H414 
C397   H415 
C398   H421 
C398   H422 
C398   H423 
O399   C400 
C400   C401 
C400   H406 
C400   H407 
C401   C402 
C401   H410 
C401   H411 
C402   C403 
C402   H416 
C402   H417 
C403   H418 
C403   H419 
C403   H420 
  
#END  
