data_
_symmetry_cell_setting           triclinic 
_symmetry_space_group_name_H-M   'P 1' 
_symmetry_Int_Tables_number      1 
loop_ 
_symmetry_equiv_pos_site_id 
_symmetry_equiv_pos_as_xyz 
1 x,y,z 
_cell_length_a             10.682122        
_cell_length_b             18.605118        
_cell_length_c             19.160725        
_cell_angle_alpha          88.529131        
_cell_angle_beta           89.447243        
_cell_angle_gamma          89.531965        
loop_  
_atom_site_label   
_atom_site_type_symbol  
_atom_site_fract_x  
_atom_site_fract_y  
_atom_site_fract_z 
 Cu0  Cu    -0.008519     -0.002579      0.069697 
 Cu1  Cu    -0.004876     -0.000382     -0.066582 
 O2  O    -0.153721      0.066267     -0.058197 
 C3  C    -0.172723      0.097544     -0.000561 
 O4  O    -0.139891      0.072342      0.058964 
 O5  O     0.098763      0.087284     -0.058061 
 C6  C     0.131885      0.110049      0.001025 
 O7  O     0.116450      0.076873      0.059476 
 O8  O    -0.110270     -0.087188     -0.056494 
 C9  C    -0.146641     -0.112432      0.002708 
 O10  O    -0.133342     -0.081445      0.060629 
 O11  O     0.143120     -0.065812     -0.054254 
 C12  C     0.156853     -0.100727      0.003343 
 O13  O     0.121377     -0.079081      0.062957 
 Cu14  Cu     0.485946      0.498982      0.066824 
 Cu15  Cu     0.489642      0.499080     -0.069266 
 O16  O     0.379521     -0.415241     -0.064912 
 C17  C     0.340431     -0.393028     -0.006201 
 O18  O     0.352824     -0.426243      0.052358 
 O19  O    -0.367248     -0.432556     -0.063504 
 C20  C    -0.353565     -0.399676     -0.006698 
 O21  O    -0.389146     -0.423399      0.053200 
 O22  O     0.344335      0.431213     -0.056831 
 C23  C     0.325296      0.399464      0.002024 
 O24  O     0.360945      0.421690      0.060829 
 O25  O    -0.397707      0.415380     -0.054529 
 C26  C    -0.365761      0.390534      0.005311 
 O27  O    -0.381512      0.422858      0.062570 
 C28  C    -0.218169      0.210357      0.061629 
 C29  C    -0.226050      0.172856     -0.000745 
 C30  C    -0.277340      0.207326     -0.060092 
 C31  C    -0.323868      0.277406     -0.055725 
 C32  C    -0.313574      0.315276      0.006186 
 C33  C    -0.257113      0.282423      0.064860 
 O34  O    -0.289513      0.175254     -0.122702 
 C35  C    -0.180614      0.177880     -0.166816 
 C36  C    -0.175728      0.245511     -0.213008 
 C37  C    -0.286772      0.254999     -0.262958 
 C38  C    -0.311117      0.189892     -0.308276 
 O39  O    -0.244737      0.319182      0.125352 
 C40  C    -0.125673      0.314175      0.159710 
 C41  C    -0.134342      0.352960      0.228652 
 C42  C    -0.231420      0.321717      0.280570 
 C43  C    -0.206729      0.243358      0.303383 
 H44  H    -0.368023      0.301147     -0.101998 
 H45  H    -0.180641      0.184001      0.108462 
 H46  H    -0.096889      0.257895      0.168933 
 H47  H    -0.054477      0.339061      0.125076 
 H48  H    -0.096404      0.173807     -0.134301 
 H49  H    -0.182509      0.130131     -0.199175 
 H50  H    -0.041731      0.352623      0.253238 
 H51  H    -0.157288      0.409895      0.217952 
 H52  H    -0.169192      0.293104     -0.180239 
 H53  H    -0.088184      0.244061     -0.243731 
 H54  H    -0.371441      0.267670     -0.232542 
 H55  H    -0.270023      0.302219     -0.297382 
 H56  H    -0.234983      0.355145      0.327208 
 H57  H    -0.324672      0.326030      0.257008 
 H58  H    -0.280900      0.223788      0.338818 
 H59  H    -0.204530      0.207487      0.258769 
 H60  H    -0.118012      0.237448      0.331526 
 H61  H    -0.381921      0.202532     -0.348074 
 H62  H    -0.225696      0.172689     -0.335671 
 H63  H    -0.345257      0.143706     -0.277044 
 N64  N     0.001123      0.005970      0.319306 
 C65  C     0.130144      0.008942      0.290542 
 C66  C    -0.058686     -0.059788      0.294253 
 C67  C    -0.069049      0.068784      0.291033 
 C68  C    -0.059669     -0.059933      0.212731 
 H69  H    -0.007958     -0.107275      0.315456 
 H70  H    -0.155179     -0.062485      0.315116 
 C71  C     0.129289      0.008540      0.209012 
 H72  H     0.175631      0.057880      0.308762 
 H73  H     0.184558     -0.037130      0.311626 
 C74  C    -0.069930      0.068710      0.209449 
 H75  H    -0.165467      0.067595      0.312046 
 H76  H    -0.025926      0.118120      0.309960 
 H77  H     0.175107      0.057055      0.187010 
 H78  H     0.182709     -0.037946      0.189608 
 H79  H    -0.008850     -0.107222      0.193157 
 H80  H    -0.156580     -0.063021      0.193740 
 H81  H    -0.027042      0.118087      0.187323 
 N82  N    -0.000566      0.005648      0.183036 
 H83  H    -0.166998      0.067485      0.190425 
 C84  C     0.122417      0.238123     -0.037673 
 C85  C     0.185002      0.184296      0.001324 
 C86  C     0.290264      0.201240      0.040937 
 C87  C     0.328934      0.272801      0.043119 
 C88  C     0.267730      0.326318      0.003299 
 C89  C     0.161990      0.309599     -0.035869 
 O90  O     0.357802      0.153025      0.080619 
 C91  C     0.412228      0.091880      0.047227 
 C92  C    -0.494384      0.058302      0.098351 
 C93  C    -0.436061     -0.012831      0.074769 
 C94  C     0.468797     -0.073591      0.069002 
 O95  O     0.097001      0.359702     -0.074655 
 C96  C     0.017010      0.406313     -0.035171 
 C97  C    -0.070862      0.447755     -0.084132 
 C98  C    -0.005587      0.497969     -0.137817 
 C99  C     0.067992     -0.441178     -0.105136 
 H100  H     0.411995      0.285070      0.073210 
 H101  H     0.039773      0.226378     -0.068085 
 H102  H    -0.037553      0.373521      0.002708 
 H103  H     0.074910      0.443166     -0.005343 
 H104  H     0.338841      0.053369      0.034516 
 H105  H     0.458737      0.109144     -0.001937 
 H106  H    -0.128628      0.409166     -0.111933 
 H107  H    -0.137149      0.479611     -0.052845 
 H108  H    -0.418599      0.096819      0.106865 
 H109  H     0.459318      0.049215      0.149398 
 H110  H    -0.387740     -0.003954      0.024301 
 H111  H    -0.362485     -0.029436      0.111809 
 H112  H     0.057568      0.466215     -0.170972 
 H113  H    -0.077137     -0.478585     -0.172701 
 H114  H     0.007307     -0.407441     -0.072633 
 H115  H     0.143688     -0.462532     -0.071985 
 H116  H     0.111350     -0.406080     -0.145323 
 H117  H     0.396394     -0.059548      0.030668 
 H118  H    -0.485943     -0.123422      0.051907 
 H119  H     0.421597     -0.085234      0.119185 
 C120  C     0.146082     -0.229201      0.041770 
 C121  C     0.206399     -0.176341      0.000619 
 C122  C     0.306985     -0.194115     -0.043528 
 C123  C     0.345445     -0.266106     -0.047840 
 C124  C     0.286174     -0.318587     -0.006106 
 C125  C     0.184101     -0.301307      0.036923 
 O126  O     0.365383     -0.139313     -0.079420 
 C127  C     0.480814     -0.153063     -0.115577 
 C128  C    -0.454996     -0.081437     -0.129440 
 C129  C     0.459917     -0.022781     -0.161690 
 C130  C    -0.471250      0.048090     -0.174788 
 O131  O     0.127205     -0.357294      0.071836 
 C132  C     0.002671     -0.348633      0.098720 
 C133  C    -0.059128     -0.422209      0.100152 
 C134  C     0.016305     -0.482753      0.136792 
 C135  C     0.032774     -0.472926      0.215348 
 H136  H     0.423871     -0.281246     -0.081603 
 H137  H     0.068329     -0.214680      0.076207 
 H138  H     0.007575     -0.326008      0.151121 
 H139  H    -0.051090     -0.310940      0.065190 
 H140  H    -0.457938     -0.188511     -0.083776 
 H141  H     0.460278     -0.180104     -0.164571 
 H142  H    -0.152350     -0.418122      0.124794 
 H143  H    -0.076180     -0.437668      0.045971 
 H144  H    -0.417344     -0.062169     -0.080043 
 H145  H    -0.373218     -0.089773     -0.163731 
 H146  H     0.420864     -0.041607     -0.210831 
 H147  H     0.379505     -0.013168     -0.126584 
 H148  H    -0.031209      0.466064      0.128177 
 H149  H     0.108832     -0.487871      0.111355 
 H150  H     0.084082     -0.423493      0.225966 
 H151  H    -0.058426     -0.469957      0.242186 
 H152  H     0.085515      0.481856      0.238959 
 H153  H    -0.391573      0.041125     -0.210646 
 H154  H     0.466596      0.089429     -0.197603 
 H155  H    -0.435069      0.068642     -0.125708 
 N156  N     0.488352     -0.498665      0.317084 
 C157  C     0.452189      0.430054      0.292059 
 C158  C     0.396948     -0.445570      0.289177 
 C159  C    -0.386651     -0.480792      0.287741 
 C160  C     0.395653     -0.445405      0.207535 
 H161  H     0.303299     -0.458112      0.310729 
 H162  H     0.421855     -0.392367      0.308107 
 C163  C     0.451978      0.429694      0.210458 
 H164  H    -0.483359      0.388829      0.313691 
 H165  H     0.358200      0.417220      0.312816 
 C166  C    -0.388441     -0.480394      0.206185 
 H167  H    -0.358301     -0.427724      0.306159 
 H168  H    -0.317528      0.479901      0.308162 
 H169  H    -0.481561      0.389207      0.190724 
 H170  H     0.358663      0.415131      0.191517 
 H171  H     0.301574     -0.457984      0.188385 
 H172  H     0.419604     -0.391780      0.185651 
 H173  H    -0.319235      0.481223      0.185490 
 N174  N     0.485922     -0.498868      0.180659 
 H175  H    -0.362708     -0.426870      0.184931 
 C176  C    -0.320314     -0.285419      0.052248 
 C177  C    -0.300987     -0.324781     -0.008259 
 C178  C    -0.233677     -0.294582     -0.065042 
 C179  C    -0.181903     -0.225970     -0.058346 
 C180  C    -0.201110     -0.186777      0.002270 
 C181  C    -0.269376     -0.216686      0.058614 
 O182  O    -0.220460     -0.332590     -0.125162 
 C183  C    -0.144665     -0.304590     -0.181945 
 C184  C    -0.209998     -0.243470     -0.222793 
 C185  C    -0.326738     -0.266348     -0.262105 
 C186  C    -0.384156     -0.205088     -0.306349 
 O187  O    -0.284470     -0.177658      0.117831 
 C188  C    -0.356528     -0.206334      0.175531 
 C189  C    -0.280948     -0.262526      0.217069 
 C190  C    -0.165356     -0.231520      0.251683 
 C191  C    -0.097946     -0.285873      0.299509 
 H192  H    -0.124705     -0.202677     -0.100518 
 H193  H    -0.375994     -0.308819      0.095011 
 H194  H    -0.380690     -0.160635      0.208562 
 H195  H    -0.445866     -0.227735      0.157084 
 H196  H    -0.053381     -0.287791     -0.161869 
 H197  H    -0.125196     -0.349748     -0.216573 
 H198  H    -0.340723     -0.287578      0.257724 
 H199  H    -0.250490     -0.306677      0.183608 
 H200  H    -0.237152     -0.199580     -0.188263 
 H201  H    -0.143429     -0.219658     -0.260748 
 H202  H    -0.301983     -0.311029     -0.296263 
 H203  H    -0.397031     -0.286742     -0.224382 
 H204  H    -0.100031     -0.211945      0.210857 
 H205  H    -0.193758     -0.184771      0.282239 
 H206  H    -0.065354     -0.332764      0.270637 
 H207  H    -0.016136     -0.261648      0.323625 
 H208  H    -0.160241     -0.305147      0.341792 
 H209  H    -0.412807     -0.159665     -0.274210 
 H210  H    -0.316930     -0.184850     -0.345756 
 H211  H    -0.467158     -0.223222     -0.334098 
 Cu212  Cu     0.012904     -0.001172     -0.431048 
 Cu213  Cu    -0.005168      0.003942      0.433143 
 O214  O    -0.136789      0.077755      0.448218 
 C215  C    -0.154933      0.103978     -0.491761 
 O216  O    -0.121252      0.074761     -0.433874 
 O217  O     0.120508      0.082531      0.437796 
 C218  C     0.147347      0.110235      0.495813 
 O219  O     0.130332      0.080113     -0.444466 
 O220  O    -0.129022     -0.074974      0.446853 
 C221  C    -0.139242     -0.108476     -0.494591 
 O222  O    -0.103760     -0.084662     -0.436270 
 O223  O     0.126736     -0.071827      0.435575 
 C224  C     0.165095     -0.098870      0.493300 
 O225  O     0.150937     -0.071090     -0.447100 
 Cu226  Cu    -0.497483     -0.497249     -0.432426 
 Cu227  Cu     0.491347     -0.498300      0.431526 
 O228  O     0.368211     -0.419019      0.441367 
 C229  C     0.347689     -0.390670     -0.499863 
 O230  O     0.376452     -0.418122     -0.440516 
 O231  O    -0.378843     -0.421540      0.435106 
 C232  C    -0.349239     -0.393904      0.492785 
 O233  O    -0.367372     -0.422757     -0.447019 
 O234  O     0.356073      0.430325      0.445512 
 C235  C     0.338397      0.400767     -0.494553 
 O236  O     0.371327      0.427252     -0.437013 
 O237  O    -0.388922      0.418085      0.442259 
 C238  C    -0.354359      0.393741     -0.497982 
 O239  O    -0.369663      0.425741     -0.440615 
 C240  C    -0.365127      0.265325      0.470337 
 C241  C    -0.301819      0.318670     -0.494124 
 C242  C    -0.194674      0.302126     -0.454647 
 C243  C    -0.146872      0.231439     -0.454009 
 C244  C    -0.210188      0.178285     -0.489803 
 C245  C    -0.321022      0.194078      0.474395 
 O246  O    -0.143451      0.357301     -0.418714 
 C247  C    -0.035197      0.346105     -0.375958 
 C248  C    -0.039250      0.400630     -0.317825 
 C249  C    -0.051051      0.479545     -0.342668 
 C250  C     0.063708     -0.493586     -0.383532 
 O251  O    -0.378634      0.137358      0.444549 
 C252  C     0.495979      0.145492      0.420201 
 C253  C     0.455721      0.073309      0.392870 
 C254  C    -0.454645      0.043134      0.337334 
 C255  C     0.495074     -0.023494      0.302080 
 H256  H    -0.059982      0.217568     -0.427082 
 H257  H    -0.449515      0.279015      0.440963 
 H258  H     0.435571      0.162161      0.463825 
 H259  H     0.491722      0.187452      0.378760 
 H260  H    -0.033324      0.291439     -0.352830 
 H261  H     0.048896      0.352550     -0.409144 
 H262  H     0.448667      0.034419      0.436906 
 H263  H     0.360533      0.078369      0.371806 
 H264  H    -0.118294      0.388164     -0.282434 
 H265  H     0.045530      0.394095     -0.285956 
 H266  H    -0.135353      0.486799     -0.374897 
 H267  H    -0.065931     -0.486622     -0.297015 
 H268  H    -0.434447      0.085116      0.297392 
 H269  H    -0.364459      0.029589      0.362049 
 H270  H    -0.436599     -0.044535      0.264370 
 H271  H     0.474423     -0.066350      0.340852 
 H272  H     0.408421     -0.011023      0.273662 
 H273  H     0.078578      0.476872     -0.431859 
 H274  H     0.053814     -0.436348     -0.397504 
 H275  H     0.148829      0.499981     -0.352542 
 N276  N     0.015086     -0.017145     -0.180373 
 C277  C     0.074630      0.049796     -0.207048 
 C278  C     0.086431     -0.078023     -0.209493 
 C279  C    -0.113888     -0.021104     -0.207482 
 C280  C     0.082209     -0.074984     -0.291287 
 H281  H     0.183818     -0.075549     -0.191216 
 H282  H     0.047715     -0.128912     -0.188247 
 C283  C     0.077383      0.053344     -0.288569 
 H284  H     0.023717      0.096558     -0.186865 
 H285  H     0.170440      0.051969     -0.186321 
 C286  C    -0.114388     -0.012531     -0.288788 
 H287  H    -0.153079     -0.073625     -0.191291 
 H288  H    -0.174054      0.019711     -0.183293 
 H289  H     0.030565      0.102730     -0.308443 
 H290  H     0.174705      0.055013     -0.308182 
 H291  H     0.177717     -0.075902     -0.313678 
 H292  H     0.033062     -0.121843     -0.311173 
 H293  H    -0.163820      0.037349     -0.304859 
 N294  N     0.015096     -0.009974     -0.317039 
 H295  H    -0.165206     -0.057231     -0.312042 
 C296  C     0.237586      0.302305      0.442443 
 C297  C     0.282333      0.326772     -0.494084 
 C298  C     0.282415      0.281327     -0.434446 
 C299  C     0.237378      0.211050     -0.439600 
 C300  C     0.195867      0.185936      0.496304 
 C301  C     0.196987      0.231216      0.436384 
 O302  O     0.328097      0.307748     -0.373713 
 C303  C     0.354481      0.260752     -0.315171 
 C304  C     0.240783      0.256191     -0.266840 
 C305  C     0.260495      0.205784     -0.203167 
 C306  C     0.366851      0.228054     -0.155209 
 O307  O     0.158474      0.204631      0.373955 
 C308  C     0.147433      0.251385      0.313372 
 C309  C     0.274151      0.266537      0.278912 
 C310  C     0.336419      0.200951      0.245947 
 C311  C     0.470924      0.215901      0.221327 
 H312  H     0.234819      0.175764     -0.393254 
 H313  H     0.237109      0.338772      0.396951 
 H314  H     0.086250      0.224604      0.276338 
 H315  H     0.099114      0.301320      0.328098 
 H316  H     0.385845      0.207547     -0.332473 
 H317  H     0.433870      0.284098     -0.287933 
 H318  H     0.261645      0.308629      0.238058 
 H319  H     0.339391      0.288408      0.316858 
 H320  H     0.216906      0.310350     -0.248625 
 H321  H     0.158839      0.238071     -0.295829 
 H322  H     0.172595      0.202947     -0.172845 
 H323  H     0.278921      0.151048     -0.221194 
 H324  H     0.336587      0.155551      0.283752 
 H325  H     0.279731      0.183846      0.201773 
 H326  H    -0.485965      0.168258      0.198194 
 H327  H     0.474422      0.259695      0.181864 
 H328  H    -0.470037      0.231309      0.264950 
 H329  H     0.372739      0.191915     -0.109065 
 H330  H     0.458237      0.225825     -0.181666 
 H331  H     0.352871      0.282965     -0.136608 
 C332  C     0.355955     -0.265682     -0.460738 
 C333  C     0.293838     -0.316300      0.499390 
 C334  C     0.193999     -0.295520      0.455628 
 C335  C     0.160886     -0.222680      0.450588 
 C336  C     0.222368     -0.172288      0.490809 
 C337  C     0.324715     -0.192650     -0.467489 
 O338  O     0.125631     -0.339563      0.414303 
 C339  C     0.095587     -0.411161      0.438610 
 C340  C    -0.032378     -0.429891      0.410389 
 C341  C    -0.083346      0.496675      0.435186 
 C342  C    -0.000245      0.432545      0.415762 
 O343  O     0.395085     -0.145373     -0.430961 
 C344  C     0.443330     -0.083998     -0.469671 
 C345  C    -0.446387     -0.052153     -0.431630 
 C346  C    -0.480707     -0.016562     -0.362511 
 C347  C     0.439525      0.051890     -0.371518 
 H348  H     0.080929     -0.207021      0.418370 
 H349  H     0.435318     -0.281299     -0.428070 
 H350  H     0.473266     -0.100691      0.478054 
 H351  H     0.369041     -0.043271     -0.476628 
 H352  H     0.166466     -0.449113      0.419224 
 H353  H     0.095732     -0.413991      0.495912 
 H354  H    -0.376328     -0.094732     -0.421589 
 H355  H    -0.399286     -0.012319     -0.466198 
 H356  H    -0.099943     -0.388018      0.425450 
 H357  H    -0.028369     -0.428093      0.353036 
 H358  H    -0.098723      0.496642      0.492076 
 H359  H    -0.176715      0.489757      0.412634 
 H360  H     0.469702     -0.055635     -0.328434 
 H361  H    -0.393724     -0.003477     -0.335427 
 H362  H     0.487784      0.092400     -0.404505 
 H363  H     0.349391      0.040621     -0.395917 
 H364  H     0.419325      0.076017     -0.320907 
 H365  H     0.091903      0.435480      0.440368 
 H366  H    -0.043015      0.381537      0.433181 
 H367  H     0.014405      0.430472      0.359049 
 N368  N    -0.499601      0.493545     -0.182337 
 C369  C     0.371573      0.493746     -0.209842 
 C370  C    -0.434533     -0.441846     -0.210270 
 C371  C    -0.433527      0.429645     -0.209139 
 C372  C    -0.437579     -0.438566     -0.291781 
 H373  H    -0.478090     -0.393450     -0.188259 
 H374  H    -0.336760     -0.443701     -0.192329 
 C375  C     0.373945      0.493018     -0.291218 
 H376  H     0.320961      0.446575     -0.188385 
 H377  H     0.321207     -0.458304     -0.191408 
 C378  C    -0.426596      0.433159     -0.290722 
 H379  H    -0.338786      0.426452     -0.186833 
 H380  H    -0.483717      0.381159     -0.190516 
 H381  H     0.329520      0.443801     -0.309611 
 H382  H     0.320454     -0.460892     -0.312847 
 H383  H    -0.490741     -0.390993     -0.310760 
 H384  H    -0.341916     -0.433850     -0.313486 
 H385  H    -0.464404      0.384088     -0.313230 
 N386  N    -0.496341      0.496307     -0.318662 
 H387  H    -0.328461      0.437139     -0.308587 
 C388  C    -0.203044     -0.307426     -0.457421 
 C389  C    -0.293591     -0.320037      0.492179 
 C390  C    -0.334566     -0.264520      0.446518 
 C391  C    -0.282721     -0.195738      0.452434 
 C392  C    -0.192640     -0.182960     -0.496700 
 C393  C    -0.150815     -0.238879     -0.451709 
 O394  O    -0.424820     -0.279371      0.398416 
 C395  C    -0.491029     -0.220775      0.364596 
 C396  C     0.411715     -0.250365      0.315609 
 C397  C     0.331506     -0.192574      0.278225 
 C398  C     0.240321     -0.223949      0.225912 
 O399  O    -0.060030     -0.225441     -0.403593 
 C400  C     0.010574     -0.285199     -0.374949 
 C401  C     0.107704     -0.257718     -0.324877 
 C402  C     0.192731     -0.316590     -0.293219 
 C403  C     0.280341     -0.287801     -0.237698 
 H404  H    -0.312371     -0.151732      0.417420 
 H405  H    -0.174181     -0.351626     -0.422373 
 H406  H    -0.052428     -0.322676     -0.346784 
 H407  H     0.055837     -0.313706     -0.418189 
 H408  H     0.463267     -0.188224      0.404759 
 H409  H    -0.424362     -0.186647      0.335099 
 H410  H     0.165980     -0.216947     -0.351985 
 H411  H     0.059814     -0.230506     -0.281848 
 H412  H     0.458631     -0.283032      0.276009 
 H413  H     0.349590     -0.286983      0.345450 
 H414  H     0.278726     -0.161990      0.317392 
 H415  H     0.392783     -0.153781      0.250620 
 H416  H     0.134947     -0.359929     -0.270064 
 H417  H     0.248448     -0.341005     -0.335199 
 H418  H     0.339934     -0.330690     -0.215373 
 H419  H     0.341938     -0.245908     -0.259919 
 H420  H     0.227272     -0.264271     -0.194329 
 H421  H     0.175405     -0.261875      0.251765 
 H422  H     0.184205     -0.181414      0.200136 
 H423  H     0.290367     -0.252991      0.184737 
loop_  
_geom_bond_atom_site_label_1  
_geom_bond_atom_site_label_2  
Cu0   Cu1 
Cu0   O4 
Cu0   O7 
Cu0   O10 
Cu0   O13 
Cu0   N82 
Cu1   O2 
Cu1   O5 
Cu1   O8 
Cu1   O11 
Cu1   N276 
O2   C3 
C3   O4 
C3   C29 
O5   C6 
C6   O7 
C6   C85 
O8   C9 
C9   O10 
C9   C180 
O11   C12 
C12   O13 
C12   C121 
Cu14   Cu15 
Cu14   O18 
Cu14   O21 
Cu14   O24 
Cu14   O27 
Cu14   N174 
Cu15   O16 
Cu15   O19 
Cu15   O22 
Cu15   O25 
Cu15   N368 
O16   C17 
C17   O18 
C17   C124 
O19   C20 
C20   O21 
C20   C177 
O22   C23 
C23   O24 
C23   C88 
O25   C26 
C26   O27 
C26   C32 
C28   C29 
C28   C33 
C28   H45 
C29   C30 
C30   C31 
C30   O34 
C31   C32 
C31   H44 
C32   C33 
C33   O39 
O34   C35 
C35   C36 
C35   H48 
C35   H49 
C36   C37 
C36   H52 
C36   H53 
C37   C38 
C37   H54 
C37   H55 
C38   H61 
C38   H62 
C38   H63 
O39   C40 
C40   C41 
C40   H46 
C40   H47 
C41   C42 
C41   H50 
C41   H51 
C42   C43 
C42   H56 
C42   H57 
C43   H58 
C43   H59 
C43   H60 
N64   C65 
N64   C66 
N64   C67 
N64   Cu213 
C65   C71 
C65   H72 
C65   H73 
C66   C68 
C66   H69 
C66   H70 
C67   C74 
C67   H75 
C67   H76 
C68   H79 
C68   H80 
C68   N82 
C71   H77 
C71   H78 
C71   N82 
C74   H81 
C74   N82 
C74   H83 
C84   C85 
C84   C89 
C84   H101 
C85   C86 
C86   C87 
C86   O90 
C87   C88 
C87   H100 
C88   C89 
C89   O95 
O90   C91 
C91   C92 
C91   H104 
C91   H105 
C92   C93 
C92   H108 
C92   H109 
C93   C94 
C93   H110 
C93   H111 
C94   H117 
C94   H118 
C94   H119 
O95   C96 
C96   C97 
C96   H102 
C96   H103 
C97   C98 
C97   H106 
C97   H107 
C98   C99 
C98   H112 
C98   H113 
C99   H114 
C99   H115 
C99   H116 
C120   C121 
C120   C125 
C120   H137 
C121   C122 
C122   C123 
C122   O126 
C123   C124 
C123   H136 
C124   C125 
C125   O131 
O126   C127 
C127   C128 
C127   H140 
C127   H141 
C128   C129 
C128   H144 
C128   H145 
C129   C130 
C129   H146 
C129   H147 
C130   H153 
C130   H154 
C130   H155 
O131   C132 
C132   C133 
C132   H138 
C132   H139 
C133   C134 
C133   H142 
C133   H143 
C134   C135 
C134   H148 
C134   H149 
C135   H150 
C135   H151 
C135   H152 
N156   C157 
N156   C158 
N156   C159 
N156   Cu227 
C157   C163 
C157   H164 
C157   H165 
C158   C160 
C158   H161 
C158   H162 
C159   C166 
C159   H167 
C159   H168 
C160   H171 
C160   H172 
C160   N174 
C163   H169 
C163   H170 
C163   N174 
C166   H173 
C166   N174 
C166   H175 
C176   C177 
C176   C181 
C176   H193 
C177   C178 
C178   C179 
C178   O182 
C179   C180 
C179   H192 
C180   C181 
C181   O187 
O182   C183 
C183   C184 
C183   H196 
C183   H197 
C184   C185 
C184   H200 
C184   H201 
C185   C186 
C185   H202 
C185   H203 
C186   H209 
C186   H210 
C186   H211 
O187   C188 
C188   C189 
C188   H194 
C188   H195 
C189   C190 
C189   H198 
C189   H199 
C190   C191 
C190   H204 
C190   H205 
C191   H206 
C191   H207 
C191   H208 
Cu212   Cu213 
Cu212   O216 
Cu212   O219 
Cu212   O222 
Cu212   O225 
Cu212   N294 
Cu213   O214 
Cu213   O217 
Cu213   O220 
Cu213   O223 
O214   C215 
C215   O216 
C215   C244 
O217   C218 
C218   O219 
C218   C300 
O220   C221 
C221   O222 
C221   C392 
O223   C224 
C224   O225 
C224   C336 
Cu226   Cu227 
Cu226   O230 
Cu226   O233 
Cu226   O236 
Cu226   O239 
Cu226   N386 
Cu227   O228 
Cu227   O231 
Cu227   O234 
Cu227   O237 
O228   C229 
C229   O230 
C229   C333 
O231   C232 
C232   O233 
C232   C389 
O234   C235 
C235   O236 
C235   C297 
O237   C238 
C238   O239 
C238   C241 
C240   C241 
C240   C245 
C240   H257 
C241   C242 
C242   C243 
C242   O246 
C243   C244 
C243   H256 
C244   C245 
C245   O251 
O246   C247 
C247   C248 
C247   H260 
C247   H261 
C248   C249 
C248   H264 
C248   H265 
C249   C250 
C249   H266 
C249   H267 
C250   H273 
C250   H274 
C250   H275 
O251   C252 
C252   C253 
C252   H258 
C252   H259 
C253   C254 
C253   H262 
C253   H263 
C254   C255 
C254   H268 
C254   H269 
C255   H270 
C255   H271 
C255   H272 
N276   C277 
N276   C278 
N276   C279 
C277   C283 
C277   H284 
C277   H285 
C278   C280 
C278   H281 
C278   H282 
C279   C286 
C279   H287 
C279   H288 
C280   H291 
C280   H292 
C280   N294 
C283   H289 
C283   H290 
C283   N294 
C286   H293 
C286   N294 
C286   H295 
C296   C297 
C296   C301 
C296   H313 
C297   C298 
C298   C299 
C298   O302 
C299   C300 
C299   H312 
C300   C301 
C301   O307 
O302   C303 
C303   C304 
C303   H316 
C303   H317 
C304   C305 
C304   H320 
C304   H321 
C305   C306 
C305   H322 
C305   H323 
C306   H329 
C306   H330 
C306   H331 
O307   C308 
C308   C309 
C308   H314 
C308   H315 
C309   C310 
C309   H318 
C309   H319 
C310   C311 
C310   H324 
C310   H325 
C311   H326 
C311   H327 
C311   H328 
C332   C333 
C332   C337 
C332   H349 
C333   C334 
C334   C335 
C334   O338 
C335   C336 
C335   H348 
C336   C337 
C337   O343 
O338   C339 
C339   C340 
C339   H352 
C339   H353 
C340   C341 
C340   H356 
C340   H357 
C341   C342 
C341   H358 
C341   H359 
C342   H365 
C342   H366 
C342   H367 
O343   C344 
C344   C345 
C344   H350 
C344   H351 
C345   C346 
C345   H354 
C345   H355 
C346   C347 
C346   H360 
C346   H361 
C347   H362 
C347   H363 
C347   H364 
N368   C369 
N368   C370 
N368   C371 
C369   C375 
C369   H376 
C369   H377 
C370   C372 
C370   H373 
C370   H374 
C371   C378 
C371   H379 
C371   H380 
C372   H383 
C372   H384 
C372   N386 
C375   H381 
C375   H382 
C375   N386 
C378   H385 
C378   N386 
C378   H387 
C388   C389 
C388   C393 
C388   H405 
C389   C390 
C390   C391 
C390   O394 
C391   C392 
C391   H404 
C392   C393 
C393   O399 
O394   C395 
C395   C396 
C395   H408 
C395   H409 
C396   C397 
C396   H412 
C396   H413 
C397   C398 
C397   H414 
C397   H415 
C398   H421 
C398   H422 
C398   H423 
O399   C400 
C400   C401 
C400   H406 
C400   H407 
C401   C402 
C401   H410 
C401   H411 
C402   C403 
C402   H416 
C402   H417 
C403   H418 
C403   H419 
C403   H420 
  
#END  
