data_
_symmetry_cell_setting           triclinic 
_symmetry_space_group_name_H-M   'P 1' 
_symmetry_Int_Tables_number      1 
loop_ 
_symmetry_equiv_pos_site_id 
_symmetry_equiv_pos_as_xyz 
1 x,y,z 
_cell_length_a             15.452464        
_cell_length_b             15.417038        
_cell_length_c             19.062406        
_cell_angle_alpha          90.823538        
_cell_angle_beta           90.189016        
_cell_angle_gamma          90.245420        
loop_  
_atom_site_label   
_atom_site_type_symbol  
_atom_site_fract_x  
_atom_site_fract_y  
_atom_site_fract_z 
 Cu0  Cu     0.008503     -0.000709      0.070233 
 Cu1  Cu     0.010611     -0.006719     -0.066033 
 O2  O    -0.064638      0.097756     -0.058784 
 C3  C    -0.101487      0.119437     -0.001515 
 O4  O    -0.085831      0.085871      0.057896 
 O5  O     0.115967      0.068285     -0.056499 
 C6  C     0.131039      0.108840      0.001009 
 O7  O     0.093881      0.094825      0.059318 
 O8  O    -0.092860     -0.083468     -0.054815 
 C9  C    -0.112214     -0.116774      0.004088 
 O10  O    -0.078526     -0.095197      0.062836 
 O11  O     0.085009     -0.109889     -0.055165 
 C12  C     0.118505     -0.128823      0.003860 
 O13  O     0.101934     -0.090859      0.062098 
 Cu14  Cu    -0.494974      0.499849      0.065080 
 Cu15  Cu    -0.490723      0.491367     -0.071272 
 O16  O     0.407682     -0.427903     -0.064933 
 C17  C     0.387503     -0.389696     -0.007603 
 O18  O     0.420629     -0.405170      0.052297 
 O19  O    -0.412543     -0.406298     -0.066015 
 C20  C    -0.379691     -0.382564     -0.007492 
 O21  O    -0.398971     -0.414647      0.051836 
 O22  O     0.432842      0.388447     -0.057525 
 C23  C     0.395325      0.373971      0.000566 
 O24  O     0.407216      0.416375      0.057679 
 O25  O    -0.389163      0.413851     -0.060160 
 C26  C    -0.372786      0.380547     -0.000810 
 O27  O    -0.410032      0.401617      0.056516 
 C28  C    -0.252154      0.301474     -0.060262 
 C29  C    -0.303521      0.311787     -0.000144 
 C30  C    -0.289490      0.258850      0.058204 
 C31  C    -0.221962      0.198325      0.056947 
 C32  C    -0.170517      0.188251     -0.002883 
 C33  C    -0.184753      0.240697     -0.061447 
 O34  O    -0.341470      0.267213      0.115767 
 C35  C    -0.358247      0.190599      0.155267 
 C36  C    -0.436339      0.208174      0.201142 
 C37  C    -0.467898      0.129384      0.242114 
 C38  C     0.452376      0.150139      0.286775 
 O39  O    -0.133577      0.229602     -0.119169 
 C40  C    -0.105893      0.305144     -0.155889 
 C41  C    -0.023141      0.280658     -0.194130 
 C42  C     0.018692      0.355599     -0.234053 
 C43  C     0.103447      0.329204     -0.270013 
 H44  H    -0.210332      0.158278      0.102736 
 H45  H    -0.263386      0.340980     -0.106405 
 H46  H    -0.156851      0.324814     -0.192853 
 H47  H    -0.094102      0.359061     -0.118474 
 H48  H    -0.371138      0.136055      0.118692 
 H49  H    -0.301414      0.175036      0.187716 
 H50  H     0.023710      0.256104     -0.155501 
 H51  H    -0.036372      0.226623     -0.231054 
 H52  H    -0.420398      0.260971      0.238495 
 H53  H    -0.489651      0.231229      0.167809 
 H54  H    -0.483274      0.076033      0.205061 
 H55  H    -0.415358      0.105948      0.276031 
 H56  H    -0.027129      0.379819     -0.273495 
 H57  H     0.031160      0.410011     -0.197308 
 H58  H     0.132894      0.384158     -0.297274 
 H59  H     0.151079      0.305867     -0.231768 
 H60  H     0.092728      0.277018     -0.309045 
 H61  H     0.430162      0.092617      0.314894 
 H62  H     0.466561      0.201344      0.325935 
 H63  H     0.398277      0.172721      0.254329 
 N64  N     0.002757      0.008554      0.320057 
 C65  C     0.032673     -0.075630      0.291367 
 C66  C    -0.084707      0.025457      0.291757 
 C67  C     0.061617      0.077275      0.294761 
 C68  C    -0.083644      0.024303      0.209782 
 H69  H    -0.130121     -0.023548      0.311712 
 H70  H    -0.107076      0.088890      0.311866 
 C71  C     0.036679     -0.073587      0.209671 
 H72  H     0.096832     -0.090592      0.313233 
 H73  H    -0.011473     -0.127065      0.309057 
 C74  C     0.061335      0.079785      0.212802 
 H75  H     0.041566      0.140279      0.317398 
 H76  H     0.127464      0.064602      0.314524 
 H77  H     0.103835     -0.082679      0.191953 
 H78  H    -0.001868     -0.126850      0.186154 
 H79  H    -0.126060     -0.027457      0.188555 
 H80  H    -0.108527      0.086022      0.189518 
 H81  H     0.127516      0.071812      0.192258 
 N82  N     0.005189      0.010288      0.183333 
 H83  H     0.037818      0.142893      0.194140 
 C84  C     0.280622      0.157371     -0.027221 
 C85  C     0.199086      0.178213     -0.000065 
 C86  C     0.181381      0.261537      0.026666 
 C87  C     0.247837      0.323714      0.029420 
 C88  C     0.328994      0.303127      0.001959 
 C89  C     0.346928      0.220004     -0.024923 
 O90  O     0.098891      0.279925      0.048040 
 C91  C     0.074165      0.369449      0.051013 
 C92  C    -0.023684      0.374532      0.046037 
 C93  C    -0.057125      0.468174      0.045012 
 C94  C    -0.153839      0.473403      0.028058 
 O95  O     0.429870      0.204656     -0.046645 
 C96  C     0.457646      0.116977     -0.057226 
 C97  C    -0.443991      0.117788     -0.057351 
 C98  C    -0.404148      0.028781     -0.073889 
 C99  C    -0.305193      0.029352     -0.068821 
 H100  H     0.236399      0.388636      0.051165 
 H101  H     0.292564      0.092449     -0.048647 
 H102  H     0.433230      0.075639     -0.014862 
 H103  H     0.431558      0.092350     -0.107538 
 H104  H     0.097961      0.398669      0.100508 
 H105  H     0.103489      0.404595      0.007014 
 H106  H    -0.420376      0.165390     -0.095472 
 H107  H    -0.420701      0.140937     -0.005686 
 H108  H    -0.044845      0.340186     -0.002092 
 H109  H    -0.053500      0.339668      0.089942 
 H110  H    -0.044085      0.499596      0.096228 
 H111  H    -0.020691     -0.494372      0.006089 
 H112  H    -0.430342     -0.019682     -0.037647 
 H113  H    -0.424115      0.007553     -0.126930 
 H114  H    -0.278123     -0.033982     -0.083264 
 H115  H    -0.276364      0.077490     -0.103785 
 H116  H    -0.283464      0.044540     -0.015083 
 H117  H    -0.177187     -0.459433      0.030725 
 H118  H    -0.167698      0.448249     -0.024922 
 H119  H    -0.192268      0.434722      0.064573 
 C120  C     0.229920     -0.211379     -0.061106 
 C121  C     0.184980     -0.199756      0.002007 
 C122  C     0.204948     -0.250521      0.060437 
 C123  C     0.270278     -0.312890      0.054224 
 C124  C     0.317345     -0.322439     -0.007948 
 C125  C     0.298505     -0.270679     -0.066114 
 O126  O     0.158313     -0.242333      0.121210 
 C127  C     0.202749     -0.254404      0.186812 
 C128  C     0.159931     -0.324210      0.230834 
 C129  C     0.149877     -0.413712      0.194972 
 C130  C     0.111622     -0.482255      0.243647 
 O131  O     0.349133     -0.278141     -0.124957 
 C132  C     0.327952     -0.230445     -0.186965 
 C133  C     0.355901     -0.135421     -0.181356 
 C134  C     0.324945     -0.081699     -0.243945 
 C135  C     0.348092      0.014878     -0.237431 
 H136  H     0.283466     -0.355694      0.097975 
 H137  H     0.213157     -0.171244     -0.105817 
 H138  H     0.361575     -0.262371     -0.231086 
 H139  H     0.258178     -0.236722     -0.197746 
 H140  H     0.272030     -0.267817      0.179425 
 H141  H     0.199216     -0.191863      0.214895 
 H142  H     0.332055     -0.105196     -0.132484 
 H143  H     0.426982     -0.131905     -0.177777 
 H144  H     0.197247     -0.331300      0.279765 
 H145  H     0.095792     -0.300970      0.246971 
 H146  H     0.108429     -0.407778      0.148158 
 H147  H     0.213116     -0.436217      0.175963 
 H148  H     0.352752     -0.108544     -0.292697 
 H149  H     0.254295     -0.088592     -0.249500 
 H150  H     0.325963      0.050520     -0.283664 
 H151  H     0.317633      0.044883     -0.191089 
 H152  H     0.418403      0.024534     -0.232793 
 H153  H     0.046858     -0.463623      0.261882 
 H154  H     0.105622      0.454434      0.216837 
 H155  H     0.152570     -0.491173      0.290249 
 N156  N     0.480215     -0.499949      0.316447 
 C157  C    -0.494624      0.415258      0.286027 
 C158  C     0.393274     -0.478703      0.288838 
 C159  C    -0.458408     -0.433182      0.291487 
 C160  C     0.393103     -0.480358      0.206590 
 H161  H     0.345498      0.475037      0.309669 
 H162  H     0.374828     -0.413950      0.308898 
 C163  C    -0.489353      0.419924      0.204355 
 H164  H    -0.432144      0.395088      0.308283 
 H165  H     0.457321      0.366248      0.301855 
 C166  C    -0.462217     -0.426347      0.209764 
 H167  H    -0.473628     -0.370121      0.316481 
 H168  H    -0.392581     -0.450656      0.308715 
 H169  H    -0.422406      0.409217      0.186783 
 H170  H     0.470467      0.368630      0.179731 
 H171  H     0.350294      0.467732      0.186022 
 H172  H     0.368276     -0.418825      0.186031 
 H173  H    -0.397108     -0.430969      0.187063 
 N174  N     0.481401     -0.494901      0.179205 
 H175  H    -0.487905     -0.362758      0.194219 
 C176  C    -0.265100     -0.300454      0.055820 
 C177  C    -0.311792     -0.312165     -0.006680 
 C178  C    -0.294056     -0.260104     -0.064964 
 C179  C    -0.226809     -0.198824     -0.060077 
 C180  C    -0.180503     -0.186721      0.002642 
 C181  C    -0.198766     -0.238167      0.061144 
 O182  O    -0.341711     -0.270715     -0.125398 
 C183  C    -0.343781     -0.201452     -0.175093 
 C184  C    -0.405687     -0.226633     -0.234162 
 C185  C    -0.416835     -0.156881     -0.290095 
 C186  C    -0.473305     -0.187346     -0.352150 
 O187  O    -0.151990     -0.226652      0.122032 
 C188  C    -0.160594     -0.290587      0.175542 
 C189  C    -0.100648     -0.269926      0.236884 
 C190  C    -0.108388     -0.334858      0.297036 
 C191  C    -0.050650     -0.313024      0.360554 
 H192  H    -0.210620     -0.159979     -0.105594 
 H193  H    -0.280166     -0.341205      0.100548 
 H194  H    -0.228087     -0.292093      0.193838 
 H195  H    -0.144186     -0.354106      0.152235 
 H196  H    -0.365217     -0.141618     -0.148242 
 H197  H    -0.278593     -0.190464     -0.196434 
 H198  H    -0.033618     -0.268556      0.217720 
 H199  H    -0.114651     -0.204480      0.257328 
 H200  H    -0.381981     -0.286094     -0.259939 
 H201  H    -0.469370     -0.242655     -0.211934 
 H202  H    -0.445480     -0.098584     -0.265722 
 H203  H    -0.352810     -0.137289     -0.309757 
 H204  H    -0.176204     -0.337961      0.314419 
 H205  H    -0.092518     -0.400132      0.277062 
 H206  H    -0.060118     -0.360108      0.402625 
 H207  H     0.018316     -0.313326      0.346875 
 H208  H    -0.065509     -0.248514      0.382475 
 H209  H    -0.481084     -0.135708     -0.390756 
 H210  H    -0.444449     -0.243355     -0.379550 
 H211  H     0.461779     -0.207029     -0.335045 
 Cu212  Cu    -0.004208     -0.006220     -0.430551 
 Cu213  Cu    -0.002361     -0.003495      0.433055 
 O214  O    -0.087234      0.092207      0.448334 
 C215  C    -0.123883      0.108535     -0.493061 
 O216  O    -0.105851      0.071904     -0.435461 
 O217  O     0.093390      0.080608      0.444997 
 C218  C     0.109557      0.116215     -0.495785 
 O219  O     0.074077      0.097211     -0.437710 
 O220  O    -0.099694     -0.087962      0.436435 
 C221  C    -0.119786     -0.123374      0.494093 
 O222  O    -0.083295     -0.107334     -0.446867 
 O223  O     0.085614     -0.097647      0.440664 
 C224  C     0.119058     -0.117325      0.499427 
 O225  O     0.096808     -0.085786     -0.441107 
 Cu226  Cu     0.495459      0.491363     -0.433127 
 Cu227  Cu     0.493994      0.495349      0.430540 
 O228  O     0.396900     -0.420146      0.443999 
 C229  C     0.377511     -0.388685     -0.495794 
 O230  O     0.410602     -0.411724     -0.437764 
 O231  O    -0.424406     -0.405152      0.446204 
 C232  C    -0.388006     -0.388499     -0.494910 
 O233  O    -0.405772     -0.425863     -0.437590 
 O234  O     0.411681      0.394945      0.437663 
 C235  C     0.378866      0.374881      0.496607 
 O236  O     0.397623      0.409446     -0.444258 
 O237  O    -0.405778      0.413333      0.435126 
 C238  C    -0.387122      0.376664      0.492681 
 O239  O    -0.422871      0.393603     -0.448545 
 C240  C    -0.200759      0.223961      0.444040 
 C241  C    -0.192493      0.177548     -0.493874 
 C242  C    -0.246125      0.197420     -0.436500 
 C243  C    -0.310717      0.260291     -0.444071 
 C244  C    -0.318088      0.307872      0.494126 
 C245  C    -0.260300      0.291939      0.438665 
 O246  O    -0.240312      0.152359     -0.375328 
 C247  C    -0.242547      0.201196     -0.310485 
 C248  C    -0.292613      0.151743     -0.254818 
 C249  C    -0.391328      0.146278     -0.265958 
 C250  C    -0.420429      0.091937     -0.329871 
 O251  O    -0.259976      0.342281      0.380151 
 C252  C    -0.177728      0.350986      0.345700 
 C253  C    -0.178901      0.429342      0.298800 
 C254  C    -0.239514      0.418443      0.235603 
 C255  C    -0.240997      0.498893      0.189917 
 H256  H    -0.356287      0.270693     -0.401201 
 H257  H    -0.159047      0.208207      0.399589 
 H258  H    -0.125879      0.358414      0.385221 
 H259  H    -0.164856      0.292027      0.314151 
 H260  H    -0.174800      0.210520     -0.293971 
 H261  H    -0.269670      0.266478     -0.317039 
 H262  H    -0.198044      0.486803      0.330047 
 H263  H    -0.112746      0.442002      0.280055 
 H264  H    -0.266385      0.085697     -0.250522 
 H265  H    -0.280281      0.183492     -0.203596 
 H266  H    -0.420647      0.118672     -0.218685 
 H267  H    -0.417745      0.212243     -0.269895 
 H268  H    -0.219441      0.361959      0.203668 
 H269  H    -0.305074      0.403854      0.254224 
 H270  H    -0.285253      0.490197      0.145058 
 H271  H    -0.261533     -0.443726      0.220170 
 H272  H    -0.176208     -0.487880      0.169196 
 H273  H    -0.491329      0.087018     -0.332630 
 H274  H    -0.398794      0.120582     -0.379136 
 H275  H    -0.394471      0.025805     -0.328076 
 N276  N     0.005631     -0.012859     -0.179798 
 C277  C     0.020116     -0.101068     -0.208986 
 C278  C    -0.079474      0.017297     -0.205460 
 C279  C     0.073859      0.044838     -0.207422 
 C280  C    -0.082030      0.017483     -0.287303 
 H281  H    -0.130853     -0.024846     -0.184542 
 H282  H    -0.091679      0.083072     -0.184633 
 C283  C     0.018719     -0.100054     -0.291035 
 H284  H     0.082738     -0.125441     -0.189803 
 H285  H    -0.030195     -0.145019     -0.188756 
 C286  C     0.070313      0.046978     -0.289248 
 H287  H     0.065705      0.110552     -0.184952 
 H288  H     0.137487      0.021515     -0.189504 
 H289  H     0.081287     -0.122387     -0.312051 
 H290  H    -0.031150     -0.144821     -0.312084 
 H291  H    -0.134233     -0.025051     -0.307675 
 H292  H    -0.095539      0.083334     -0.305963 
 H293  H     0.132977      0.027591     -0.312042 
 N294  N     0.001540     -0.011494     -0.316677 
 H295  H     0.057333      0.113468     -0.306950 
 C296  C     0.261331      0.158497      0.482677 
 C297  C     0.178882      0.183941     -0.495545 
 C298  C     0.160668      0.270247     -0.477178 
 C299  C     0.227264      0.332287     -0.480169 
 C300  C     0.309780      0.306881      0.497805 
 C301  C     0.328266      0.220182      0.480662 
 O302  O     0.077409      0.289701     -0.458658 
 C303  C     0.051929      0.378906     -0.457200 
 C304  C    -0.046034      0.381538     -0.451625 
 C305  C    -0.082051      0.474161     -0.450530 
 C306  C    -0.180876      0.476685     -0.455240 
 O307  O     0.411627      0.198495      0.463973 
 C308  C     0.435621      0.109338      0.471710 
 C309  C    -0.466664      0.101330      0.466710 
 C310  C    -0.435791      0.007741      0.476547 
 C311  C    -0.337257     -0.000628      0.480377 
 H312  H     0.215608      0.399956     -0.465327 
 H313  H     0.272573      0.090799      0.467604 
 H314  H     0.413105      0.086473     -0.476895 
 H315  H     0.403937      0.069625      0.430510 
 H316  H     0.082608      0.412461     -0.412131 
 H317  H     0.073475      0.410558      0.494345 
 H318  H    -0.443751      0.125396      0.415884 
 H319  H    -0.436599      0.143736     -0.493094 
 H320  H    -0.074269      0.345165     -0.496324 
 H321  H    -0.067200      0.347410     -0.404217 
 H322  H    -0.060421     -0.491924     -0.402311 
 H323  H    -0.054682     -0.489413     -0.494580 
 H324  H    -0.464008     -0.018036     -0.475023 
 H325  H    -0.460835     -0.033412      0.433305 
 H326  H    -0.318664     -0.068325      0.488354 
 H327  H    -0.305782      0.021721      0.432218 
 H328  H    -0.310448      0.037119     -0.475324 
 H329  H    -0.204291     -0.456358     -0.454418 
 H330  H    -0.204100      0.446922      0.495519 
 H331  H    -0.211619      0.442526     -0.411599 
 C332  C     0.191777     -0.239628     -0.441834 
 C333  C     0.189059     -0.184766     -0.499700 
 C334  C     0.249124     -0.193789      0.445475 
 C335  C     0.309574     -0.261555      0.447924 
 C336  C     0.311558     -0.317184     -0.494586 
 C337  C     0.253258     -0.306346     -0.438644 
 O338  O     0.246829     -0.134973      0.392110 
 C339  C     0.314037     -0.135718      0.340296 
 C340  C     0.295856     -0.063967      0.288210 
 C341  C     0.356412     -0.065213      0.224343 
 C342  C     0.327753     -0.003894      0.166024 
 O343  O     0.257512     -0.362317     -0.383337 
 C344  C     0.194795     -0.355419     -0.328132 
 C345  C     0.218061     -0.419444     -0.271099 
 C346  C     0.155351     -0.417891     -0.208614 
 C347  C     0.183805     -0.476305     -0.148340 
 H348  H     0.356148     -0.270649      0.405523 
 H349  H     0.144315     -0.231207     -0.400008 
 H350  H     0.195059     -0.288778     -0.306510 
 H351  H     0.129975     -0.369636     -0.349845 
 H352  H     0.377247     -0.125526      0.366190 
 H353  H     0.314591     -0.199400      0.313360 
 H354  H     0.219952     -0.485442     -0.293931 
 H355  H     0.283984     -0.405386     -0.251889 
 H356  H     0.228639     -0.069426      0.269648 
 H357  H     0.300388     -0.000412      0.315202 
 H358  H     0.422447     -0.048135      0.241593 
 H359  H     0.360274     -0.131572      0.202498 
 H360  H     0.148861     -0.350940     -0.188465 
 H361  H     0.090422     -0.437742     -0.226807 
 H362  H     0.137187     -0.473858     -0.104932 
 H363  H     0.189585      0.455632     -0.165533 
 H364  H     0.246985     -0.455889     -0.126981 
 H365  H     0.373557     -0.005236      0.122023 
 H366  H     0.263872     -0.022390      0.144829 
 H367  H     0.323449      0.063556      0.185048 
 N368  N    -0.497387      0.478974     -0.184092 
 C369  C    -0.418012      0.439836     -0.213675 
 C370  C     0.427373      0.428199     -0.210208 
 C371  C     0.495390     -0.431708     -0.210514 
 C372  C     0.424381      0.427689     -0.292170 
 H373  H     0.431825      0.361425     -0.190536 
 H374  H     0.367704      0.456309     -0.188126 
 C375  C    -0.421180      0.440266     -0.295597 
 H376  H    -0.361115      0.476119     -0.193859 
 H377  H    -0.411972      0.372977     -0.194443 
 C378  C     0.491074     -0.431673     -0.292093 
 H379  H     0.437198     -0.400899     -0.188442 
 H380  H    -0.448486     -0.393671     -0.191771 
 H381  H    -0.366151      0.477076     -0.316963 
 H382  H    -0.416139      0.373579     -0.316742 
 H383  H     0.428262      0.360775     -0.313185 
 H384  H     0.362860      0.454751     -0.311230 
 H385  H    -0.455989     -0.392229     -0.313654 
 N386  N     0.497013      0.478952     -0.320635 
 H387  H     0.430003     -0.402212     -0.309654 
 C388  C    -0.309708     -0.272475      0.442793 
 C389  C    -0.319552     -0.318583     -0.494966 
 C390  C    -0.265912     -0.299850     -0.436896 
 C391  C    -0.202452     -0.235004     -0.442863 
 C392  C    -0.191629     -0.189810      0.494606 
 C393  C    -0.246530     -0.207218      0.436939 
 O394  O    -0.274987     -0.345390     -0.375943 
 C395  C    -0.209074     -0.335019     -0.323173 
 C396  C    -0.222789     -0.400022     -0.265136 
 C397  C    -0.155993     -0.389862     -0.205759 
 C398  C    -0.172271     -0.451175     -0.144776 
 O399  O    -0.238719     -0.160257      0.376531 
 C400  C    -0.305578     -0.168947      0.324152 
 C401  C    -0.288552     -0.106376      0.264828 
 C402  C    -0.353801     -0.114985      0.204095 
 C403  C    -0.330357     -0.058445      0.141417 
 H404  H    -0.160429     -0.219518     -0.398245 
 H405  H    -0.351879     -0.287867      0.398257 
 H406  H    -0.306122     -0.236067      0.303532 
 H407  H    -0.368845     -0.155296      0.348400 
 H408  H    -0.145005     -0.345032     -0.347180 
 H409  H    -0.212002     -0.268394     -0.301633 
 H410  H    -0.289024     -0.039290      0.285584 
 H411  H    -0.223219     -0.117611      0.244087 
 H412  H    -0.288185     -0.392722     -0.243217 
 H413  H    -0.219502     -0.466333     -0.287274 
 H414  H    -0.090651     -0.401108     -0.226820 
 H415  H    -0.156481     -0.322491     -0.185732 
 H416  H    -0.357811     -0.183229      0.186423 
 H417  H    -0.418760     -0.097630      0.223098 
 H418  H    -0.378952     -0.064481      0.099363 
 H419  H    -0.325813      0.010150      0.157061 
 H420  H    -0.267527     -0.076955      0.118977 
 H421  H    -0.122689     -0.442265     -0.103823 
 H422  H    -0.235666     -0.439259     -0.120483 
 H423  H    -0.171016      0.480758     -0.162353 
loop_  
_geom_bond_atom_site_label_1  
_geom_bond_atom_site_label_2  
Cu0   Cu1 
Cu0   O4 
Cu0   O7 
Cu0   O10 
Cu0   O13 
Cu0   N82 
Cu1   O2 
Cu1   O5 
Cu1   O8 
Cu1   O11 
Cu1   N276 
O2   C3 
C3   O4 
C3   C32 
O5   C6 
C6   O7 
C6   C85 
O8   C9 
C9   O10 
C9   C180 
O11   C12 
C12   O13 
C12   C121 
Cu14   Cu15 
Cu14   O18 
Cu14   O21 
Cu14   O24 
Cu14   O27 
Cu14   N174 
Cu15   O16 
Cu15   O19 
Cu15   O22 
Cu15   O25 
Cu15   N368 
O16   C17 
C17   O18 
C17   C124 
O19   C20 
C20   O21 
C20   C177 
O22   C23 
C23   O24 
C23   C88 
O25   C26 
C26   O27 
C26   C29 
C28   C29 
C28   C33 
C28   H45 
C29   C30 
C30   C31 
C30   O34 
C31   C32 
C31   H44 
C32   C33 
C33   O39 
O34   C35 
C35   C36 
C35   H48 
C35   H49 
C36   C37 
C36   H52 
C36   H53 
C37   C38 
C37   H54 
C37   H55 
C38   H61 
C38   H62 
C38   H63 
O39   C40 
C40   C41 
C40   H46 
C40   H47 
C41   C42 
C41   H50 
C41   H51 
C42   C43 
C42   H56 
C42   H57 
C43   H58 
C43   H59 
C43   H60 
N64   C65 
N64   C66 
N64   C67 
N64   Cu213 
C65   C71 
C65   H72 
C65   H73 
C66   C68 
C66   H69 
C66   H70 
C67   C74 
C67   H75 
C67   H76 
C68   H79 
C68   H80 
C68   N82 
C71   H77 
C71   H78 
C71   N82 
C74   H81 
C74   N82 
C74   H83 
C84   C85 
C84   C89 
C84   H101 
C85   C86 
C86   C87 
C86   O90 
C87   C88 
C87   H100 
C88   C89 
C89   O95 
O90   C91 
C91   C92 
C91   H104 
C91   H105 
C92   C93 
C92   H108 
C92   H109 
C93   C94 
C93   H110 
C93   H111 
C94   H117 
C94   H118 
C94   H119 
O95   C96 
C96   C97 
C96   H102 
C96   H103 
C97   C98 
C97   H106 
C97   H107 
C98   C99 
C98   H112 
C98   H113 
C99   H114 
C99   H115 
C99   H116 
C120   C121 
C120   C125 
C120   H137 
C121   C122 
C122   C123 
C122   O126 
C123   C124 
C123   H136 
C124   C125 
C125   O131 
O126   C127 
C127   C128 
C127   H140 
C127   H141 
C128   C129 
C128   H144 
C128   H145 
C129   C130 
C129   H146 
C129   H147 
C130   H153 
C130   H154 
C130   H155 
O131   C132 
C132   C133 
C132   H138 
C132   H139 
C133   C134 
C133   H142 
C133   H143 
C134   C135 
C134   H148 
C134   H149 
C135   H150 
C135   H151 
C135   H152 
N156   C157 
N156   C158 
N156   C159 
N156   Cu227 
C157   C163 
C157   H164 
C157   H165 
C158   C160 
C158   H161 
C158   H162 
C159   C166 
C159   H167 
C159   H168 
C160   H171 
C160   H172 
C160   N174 
C163   H169 
C163   H170 
C163   N174 
C166   H173 
C166   N174 
C166   H175 
C176   C177 
C176   C181 
C176   H193 
C177   C178 
C178   C179 
C178   O182 
C179   C180 
C179   H192 
C180   C181 
C181   O187 
O182   C183 
C183   C184 
C183   H196 
C183   H197 
C184   C185 
C184   H200 
C184   H201 
C185   C186 
C185   H202 
C185   H203 
C186   H209 
C186   H210 
C186   H211 
O187   C188 
C188   C189 
C188   H194 
C188   H195 
C189   C190 
C189   H198 
C189   H199 
C190   C191 
C190   H204 
C190   H205 
C191   H206 
C191   H207 
C191   H208 
Cu212   Cu213 
Cu212   O216 
Cu212   O219 
Cu212   O222 
Cu212   O225 
Cu212   N294 
Cu213   O214 
Cu213   O217 
Cu213   O220 
Cu213   O223 
O214   C215 
C215   O216 
C215   C241 
O217   C218 
C218   O219 
C218   C297 
O220   C221 
C221   O222 
C221   C392 
O223   C224 
C224   O225 
C224   C333 
Cu226   Cu227 
Cu226   O230 
Cu226   O233 
Cu226   O236 
Cu226   O239 
Cu226   N386 
Cu227   O228 
Cu227   O231 
Cu227   O234 
Cu227   O237 
O228   C229 
C229   O230 
C229   C336 
O231   C232 
C232   O233 
C232   C389 
O234   C235 
C235   O236 
C235   C300 
O237   C238 
C238   O239 
C238   C244 
C240   C241 
C240   C245 
C240   H257 
C241   C242 
C242   C243 
C242   O246 
C243   C244 
C243   H256 
C244   C245 
C245   O251 
O246   C247 
C247   C248 
C247   H260 
C247   H261 
C248   C249 
C248   H264 
C248   H265 
C249   C250 
C249   H266 
C249   H267 
C250   H273 
C250   H274 
C250   H275 
O251   C252 
C252   C253 
C252   H258 
C252   H259 
C253   C254 
C253   H262 
C253   H263 
C254   C255 
C254   H268 
C254   H269 
C255   H270 
C255   H271 
C255   H272 
N276   C277 
N276   C278 
N276   C279 
C277   C283 
C277   H284 
C277   H285 
C278   C280 
C278   H281 
C278   H282 
C279   C286 
C279   H287 
C279   H288 
C280   H291 
C280   H292 
C280   N294 
C283   H289 
C283   H290 
C283   N294 
C286   H293 
C286   N294 
C286   H295 
C296   C297 
C296   C301 
C296   H313 
C297   C298 
C298   C299 
C298   O302 
C299   C300 
C299   H312 
C300   C301 
C301   O307 
O302   C303 
C303   C304 
C303   H316 
C303   H317 
C304   C305 
C304   H320 
C304   H321 
C305   C306 
C305   H322 
C305   H323 
C306   H329 
C306   H330 
C306   H331 
O307   C308 
C308   C309 
C308   H314 
C308   H315 
C309   C310 
C309   H318 
C309   H319 
C310   C311 
C310   H324 
C310   H325 
C311   H326 
C311   H327 
C311   H328 
C332   C333 
C332   C337 
C332   H349 
C333   C334 
C334   C335 
C334   O338 
C335   C336 
C335   H348 
C336   C337 
C337   O343 
O338   C339 
C339   C340 
C339   H352 
C339   H353 
C340   C341 
C340   H356 
C340   H357 
C341   C342 
C341   H358 
C341   H359 
C342   H365 
C342   H366 
C342   H367 
O343   C344 
C344   C345 
C344   H350 
C344   H351 
C345   C346 
C345   H354 
C345   H355 
C346   C347 
C346   H360 
C346   H361 
C347   H362 
C347   H363 
C347   H364 
N368   C369 
N368   C370 
N368   C371 
C369   C375 
C369   H376 
C369   H377 
C370   C372 
C370   H373 
C370   H374 
C371   C378 
C371   H379 
C371   H380 
C372   H383 
C372   H384 
C372   N386 
C375   H381 
C375   H382 
C375   N386 
C378   H385 
C378   N386 
C378   H387 
C388   C389 
C388   C393 
C388   H405 
C389   C390 
C390   C391 
C390   O394 
C391   C392 
C391   H404 
C392   C393 
C393   O399 
O394   C395 
C395   C396 
C395   H408 
C395   H409 
C396   C397 
C396   H412 
C396   H413 
C397   C398 
C397   H414 
C397   H415 
C398   H421 
C398   H422 
C398   H423 
O399   C400 
C400   C401 
C400   H406 
C400   H407 
C401   C402 
C401   H410 
C401   H411 
C402   C403 
C402   H416 
C402   H417 
C403   H418 
C403   H419 
C403   H420 
  
#END  
