data_
_symmetry_cell_setting           triclinic 
_symmetry_space_group_name_H-M   'P 1' 
_symmetry_Int_Tables_number      1 
loop_ 
_symmetry_equiv_pos_site_id 
_symmetry_equiv_pos_as_xyz 
1 x,y,z 
_cell_length_a             26.029363        
_cell_length_b             26.031584        
_cell_length_c             26.028346        
_cell_angle_alpha          89.994139        
_cell_angle_beta           90.004775        
_cell_angle_gamma          89.993062        
loop_  
_atom_site_label   
_atom_site_type_symbol  
_atom_site_fract_x  
_atom_site_fract_y  
_atom_site_fract_z 
 O0  O     0.000048     -0.000249     -0.000100 
 Zn1  Zn    -0.043523      0.043329      0.043458 
 Zn2  Zn     0.043621     -0.043830      0.043472 
 Zn3  Zn     0.043609      0.043325     -0.043668 
 Zn4  Zn    -0.043521     -0.043816     -0.043666 
 O5  O     0.030782     -0.116873      0.030627 
 C6  C     0.000055     -0.139108     -0.000099 
 O7  O    -0.030672     -0.116860     -0.030824 
 O8  O    -0.030681     -0.030966     -0.116712 
 C9  C     0.000039     -0.000242     -0.138954 
 O10  O     0.030757      0.030483     -0.116713 
 O11  O     0.030770      0.116370     -0.030830 
 C12  C     0.000044      0.138612     -0.000108 
 O13  O    -0.030683      0.116372      0.030613 
 O14  O     0.116666     -0.030983      0.030627 
 C15  C     0.138902     -0.000255     -0.000096 
 O16  O     0.116654      0.030473     -0.030820 
 O17  O    -0.116567      0.030489      0.030609 
 C18  C    -0.138808     -0.000242     -0.000105 
 O19  O    -0.116566     -0.030971     -0.030821 
 O20  O    -0.030674      0.030479      0.116504 
 C21  C     0.000047     -0.000252      0.138752 
 O22  O     0.030769     -0.030981      0.116516 
 C23  C     0.033080      0.222911     -0.033130 
 C24  C     0.033083      0.276592     -0.033127 
 C25  C     0.000050      0.303405     -0.000102 
 C26  C    -0.032985      0.276592      0.032919 
 C27  C    -0.032987      0.222912      0.032916 
 C28  C     0.000046      0.196099     -0.000107 
 H29  H     0.058962      0.297299     -0.058996 
 H30  H    -0.058862      0.297301      0.058790 
 H31  H    -0.058867      0.202205      0.058785 
 H32  H     0.058957      0.202203     -0.059001 
 C33  C    -0.032980      0.032786      0.223049 
 C34  C    -0.032982      0.032788      0.276735 
 C35  C     0.000043     -0.000247      0.303556 
 C36  C     0.033067     -0.033285      0.276750 
 C37  C     0.033068     -0.033287      0.223064 
 C38  C     0.000045     -0.000251      0.196243 
 H39  H    -0.058852      0.058668      0.297439 
 H40  H     0.058937     -0.059164      0.297467 
 H41  H     0.058939     -0.059168      0.202360 
 H42  H    -0.058850      0.058665      0.202332 
 C43  C    -0.223112      0.032785      0.032924 
 C44  C    -0.276796      0.032782      0.032926 
 C45  C    -0.303608     -0.000249     -0.000097 
 C46  C    -0.276794     -0.033278     -0.033122 
 C47  C    -0.223110     -0.033275     -0.033125 
 C48  C    -0.196297     -0.000244     -0.000102 
 H49  H    -0.297507      0.058656      0.058798 
 H50  H    -0.297502     -0.059154     -0.058992 
 H51  H    -0.202399     -0.059149     -0.058996 
 H52  H    -0.202403      0.058661      0.058793 
 O53  O    -0.499953     -0.000248     -0.000101 
 Zn54  Zn    -0.456386      0.043320      0.043465 
 Zn55  Zn    -0.456382     -0.043823     -0.043660 
 Zn56  Zn     0.456472      0.043334     -0.043672 
 Zn57  Zn     0.456486     -0.043824      0.043466 
 O58  O    -0.469220     -0.116867     -0.030819 
 C59  C    -0.499947     -0.139109     -0.000099 
 O60  O     0.469327     -0.116867      0.030623 
 O61  O     0.383440     -0.030973      0.030620 
 C62  C     0.361192     -0.000244     -0.000103 
 O63  O     0.383428      0.030486     -0.030825 
 O64  O     0.469314      0.116377     -0.030831 
 C65  C    -0.499958      0.138612     -0.000106 
 O66  O    -0.469231      0.116364      0.030621 
 O67  O    -0.469233     -0.030972     -0.116706 
 C68  C    -0.499957     -0.000245     -0.138953 
 O69  O     0.469320      0.030484     -0.116716 
 O70  O    -0.469229      0.030471      0.116511 
 C71  C    -0.499947     -0.000255      0.138752 
 O72  O     0.469337     -0.030983      0.116511 
 O73  O    -0.383340      0.030475      0.030624 
 C74  C    -0.361097     -0.000252     -0.000094 
 O75  O    -0.383338     -0.030981     -0.030811 
 C76  C     0.467013      0.222922     -0.033132 
 C77  C     0.467017      0.276603     -0.033130 
 C78  C    -0.499947      0.303405     -0.000101 
 C79  C    -0.466913      0.276582      0.032924 
 C80  C    -0.466917      0.222901      0.032922 
 C81  C    -0.499954      0.196098     -0.000106 
 H82  H     0.441140      0.297319     -0.059003 
 H83  H    -0.441032      0.297281      0.058798 
 H84  H    -0.441038      0.202185      0.058794 
 H85  H     0.441133      0.202223     -0.059006 
 C86  C    -0.466933      0.032784      0.223056 
 C87  C    -0.466937      0.032787      0.276742 
 C88  C    -0.499958     -0.000245      0.303556 
 C89  C     0.467023     -0.033280      0.276743 
 C90  C     0.467027     -0.033283      0.223057 
 C91  C    -0.499951     -0.000251      0.196243 
 H92  H    -0.441072      0.058665      0.297452 
 H93  H     0.441155     -0.059156      0.297454 
 H94  H     0.441162     -0.059161      0.202346 
 H95  H    -0.441065      0.058659      0.202345 
 C96  C     0.276879      0.032782     -0.033131 
 C97  C     0.223195      0.032779     -0.033129 
 C98  C     0.196391     -0.000253     -0.000097 
 C99  C     0.223215     -0.033282      0.032932 
 C100  C     0.276899     -0.033279      0.032930 
 C101  C     0.303703     -0.000247     -0.000102 
 H102  H     0.202478      0.058653     -0.059004 
 H103  H     0.202513     -0.059159      0.058808 
 H104  H     0.297616     -0.059153      0.058804 
 H105  H     0.297581      0.058659     -0.059007 
 O106  O     0.000047      0.499752     -0.000101 
 Zn107  Zn     0.043614     -0.456680      0.043465 
 Zn108  Zn     0.043618      0.456177     -0.043660 
 Zn109  Zn    -0.043528     -0.456666     -0.043672 
 Zn110  Zn    -0.043514      0.456176      0.043466 
 O111  O     0.030780      0.383133     -0.030819 
 C112  C     0.000053      0.360891     -0.000099 
 O113  O    -0.030673      0.383133      0.030623 
 O114  O    -0.116560      0.469027      0.030620 
 C115  C    -0.138808      0.499756     -0.000103 
 O116  O    -0.116572     -0.469514     -0.030825 
 O117  O    -0.030686     -0.383623     -0.030831 
 C118  C     0.000042     -0.361388     -0.000106 
 O119  O     0.030769     -0.383636      0.030621 
 O120  O     0.030767      0.469028     -0.116706 
 C121  C     0.000043      0.499755     -0.138953 
 O122  O    -0.030680     -0.469516     -0.116716 
 O123  O     0.030771     -0.469529      0.116511 
 C124  C     0.000053      0.499745      0.138752 
 O125  O    -0.030663      0.469017      0.116511 
 O126  O     0.116660     -0.469525      0.030624 
 C127  C     0.138903      0.499748     -0.000094 
 O128  O     0.116662      0.469019     -0.030811 
 C129  C    -0.032987     -0.277078     -0.033132 
 C130  C    -0.032983     -0.223397     -0.033130 
 C131  C     0.000053     -0.196595     -0.000101 
 C132  C     0.033087     -0.223418      0.032924 
 C133  C     0.033083     -0.277099      0.032922 
 C134  C     0.000046     -0.303902     -0.000106 
 H135  H    -0.058860     -0.202681     -0.059003 
 H136  H     0.058968     -0.202719      0.058798 
 H137  H     0.058962     -0.297815      0.058794 
 H138  H    -0.058867     -0.297777     -0.059006 
 C139  C     0.033067     -0.467216      0.223056 
 C140  C     0.033063     -0.467213      0.276742 
 C141  C     0.000042      0.499755      0.303556 
 C142  C    -0.032977      0.466720      0.276743 
 C143  C    -0.032973      0.466717      0.223057 
 C144  C     0.000049      0.499749      0.196243 
 H145  H     0.058928     -0.441335      0.297452 
 H146  H    -0.058845      0.440844      0.297454 
 H147  H    -0.058838      0.440839      0.202346 
 H148  H     0.058935     -0.441341      0.202345 
 C149  C    -0.223121     -0.467218     -0.033131 
 C150  C    -0.276805     -0.467221     -0.033129 
 C151  C    -0.303609      0.499747     -0.000097 
 C152  C    -0.276785      0.466718      0.032932 
 C153  C    -0.223101      0.466721      0.032930 
 C154  C    -0.196297      0.499753     -0.000102 
 H155  H    -0.297522     -0.441347     -0.059004 
 H156  H    -0.297487      0.440841      0.058808 
 H157  H    -0.202384      0.440847      0.058804 
 H158  H    -0.202419     -0.441341     -0.059007 
 O159  O    -0.499952      0.499751     -0.000100 
 Zn160  Zn     0.456477     -0.456671      0.043458 
 Zn161  Zn    -0.456379      0.456170      0.043472 
 Zn162  Zn    -0.456391     -0.456675     -0.043668 
 Zn163  Zn     0.456479      0.456184     -0.043666 
 O164  O    -0.469218      0.383127      0.030627 
 C165  C    -0.499945      0.360892     -0.000099 
 O166  O     0.469328      0.383140     -0.030824 
 O167  O     0.469319      0.469034     -0.116712 
 C168  C    -0.499961      0.499758     -0.138954 
 O169  O    -0.469243     -0.469517     -0.116713 
 O170  O    -0.469230     -0.383630     -0.030830 
 C171  C    -0.499956     -0.361388     -0.000108 
 O172  O     0.469317     -0.383628      0.030613 
 O173  O    -0.383334      0.469017      0.030627 
 C174  C    -0.361098      0.499745     -0.000096 
 O175  O    -0.383346     -0.469527     -0.030820 
 O176  O     0.383433     -0.469511      0.030609 
 C177  C     0.361192      0.499758     -0.000105 
 O178  O     0.383434      0.469029     -0.030821 
 O179  O     0.469326     -0.469521      0.116504 
 C180  C    -0.499953      0.499748      0.138752 
 O181  O    -0.469231      0.469019      0.116516 
 C182  C    -0.466920     -0.277089     -0.033130 
 C183  C    -0.466917     -0.223408     -0.033127 
 C184  C    -0.499950     -0.196595     -0.000102 
 C185  C     0.467015     -0.223408      0.032919 
 C186  C     0.467013     -0.277088      0.032916 
 C187  C    -0.499954     -0.303901     -0.000107 
 H188  H    -0.441038     -0.202701     -0.058996 
 H189  H     0.441138     -0.202699      0.058790 
 H190  H     0.441133     -0.297795      0.058785 
 H191  H    -0.441043     -0.297797     -0.059001 
 C192  C     0.467020     -0.467214      0.223049 
 C193  C     0.467018     -0.467212      0.276735 
 C194  C    -0.499957      0.499753      0.303556 
 C195  C    -0.466933      0.466715      0.276750 
 C196  C    -0.466932      0.466713      0.223064 
 C197  C    -0.499955      0.499749      0.196243 
 H198  H     0.441148     -0.441332      0.297439 
 H199  H    -0.441063      0.440836      0.297467 
 H200  H    -0.441061      0.440832      0.202360 
 H201  H     0.441150     -0.441335      0.202332 
 C202  C     0.276888     -0.467215      0.032924 
 C203  C     0.223204     -0.467218      0.032926 
 C204  C     0.196392      0.499751     -0.000097 
 C205  C     0.223206      0.466722     -0.033122 
 C206  C     0.276890      0.466725     -0.033125 
 C207  C     0.303703      0.499756     -0.000102 
 H208  H     0.202493     -0.441344      0.058798 
 H209  H     0.202498      0.440846     -0.058992 
 H210  H     0.297601      0.440851     -0.058996 
 H211  H     0.297597     -0.441339      0.058793 
 O212  O     0.000047     -0.000248      0.499899 
 Zn213  Zn     0.043614      0.043320     -0.456535 
 Zn214  Zn     0.043618     -0.043823      0.456340 
 Zn215  Zn    -0.043528      0.043334      0.456328 
 Zn216  Zn    -0.043514     -0.043824     -0.456534 
 O217  O     0.030780     -0.116867      0.469181 
 C218  C     0.000053     -0.139109      0.499901 
 O219  O    -0.030673     -0.116867     -0.469377 
 O220  O    -0.116560     -0.030973     -0.469380 
 C221  C    -0.138808     -0.000244      0.499897 
 O222  O    -0.116572      0.030486      0.469175 
 O223  O    -0.030686      0.116377      0.469169 
 C224  C     0.000042      0.138612      0.499894 
 O225  O     0.030769      0.116364     -0.469379 
 O226  O     0.030767     -0.030972      0.383294 
 C227  C     0.000043     -0.000245      0.361047 
 O228  O    -0.030680      0.030484      0.383284 
 O229  O     0.030771      0.030471     -0.383489 
 C230  C     0.000053     -0.000255     -0.361248 
 O231  O    -0.030663     -0.030983     -0.383489 
 O232  O     0.116660      0.030475     -0.469376 
 C233  C     0.138903     -0.000252      0.499906 
 O234  O     0.116662     -0.030981      0.469189 
 C235  C    -0.032987      0.222922      0.466868 
 C236  C    -0.032983      0.276603      0.466870 
 C237  C     0.000053      0.303405      0.499899 
 C238  C     0.033087      0.276582     -0.467076 
 C239  C     0.033083      0.222901     -0.467078 
 C240  C     0.000046      0.196098      0.499894 
 H241  H    -0.058860      0.297319      0.440997 
 H242  H     0.058968      0.297281     -0.441202 
 H243  H     0.058962      0.202185     -0.441206 
 H244  H    -0.058867      0.202223      0.440994 
 C245  C     0.033067      0.032784     -0.276944 
 C246  C     0.033063      0.032787     -0.223258 
 C247  C     0.000042     -0.000245     -0.196444 
 C248  C    -0.032977     -0.033280     -0.223257 
 C249  C    -0.032973     -0.033283     -0.276943 
 C250  C     0.000049     -0.000251     -0.303757 
 H251  H     0.058928      0.058665     -0.202548 
 H252  H    -0.058845     -0.059156     -0.202546 
 H253  H    -0.058838     -0.059161     -0.297654 
 H254  H     0.058935      0.058659     -0.297655 
 C255  C    -0.223121      0.032782      0.466869 
 C256  C    -0.276805      0.032779      0.466871 
 C257  C    -0.303609     -0.000253      0.499903 
 C258  C    -0.276785     -0.033282     -0.467068 
 C259  C    -0.223101     -0.033279     -0.467070 
 C260  C    -0.196297     -0.000247      0.499898 
 H261  H    -0.297522      0.058653      0.440996 
 H262  H    -0.297487     -0.059159     -0.441192 
 H263  H    -0.202384     -0.059153     -0.441196 
 H264  H    -0.202419      0.058659      0.440993 
 O265  O    -0.499952     -0.000249      0.499900 
 Zn266  Zn     0.456477      0.043329     -0.456542 
 Zn267  Zn    -0.456379     -0.043830     -0.456528 
 Zn268  Zn    -0.456391      0.043325      0.456332 
 Zn269  Zn     0.456479     -0.043816      0.456334 
 O270  O    -0.469218     -0.116873     -0.469373 
 C271  C    -0.499945     -0.139108      0.499901 
 O272  O     0.469328     -0.116860      0.469176 
 O273  O     0.469319     -0.030966      0.383288 
 C274  C    -0.499961     -0.000242      0.361046 
 O275  O    -0.469243      0.030483      0.383287 
 O276  O    -0.469230      0.116370      0.469170 
 C277  C    -0.499956      0.138612      0.499892 
 O278  O     0.469317      0.116372     -0.469387 
 O279  O    -0.383334     -0.030983     -0.469373 
 C280  C    -0.361098     -0.000255      0.499904 
 O281  O    -0.383346      0.030473      0.469180 
 O282  O     0.383433      0.030489     -0.469391 
 C283  C     0.361192     -0.000242      0.499895 
 O284  O     0.383434     -0.030971      0.469179 
 O285  O     0.469326      0.030479     -0.383496 
 C286  C    -0.499953     -0.000252     -0.361248 
 O287  O    -0.469231     -0.030981     -0.383484 
 C288  C    -0.466920      0.222911      0.466870 
 C289  C    -0.466917      0.276591      0.466873 
 C290  C    -0.499950      0.303405      0.499898 
 C291  C     0.467015      0.276592     -0.467081 
 C292  C     0.467013      0.222912     -0.467084 
 C293  C    -0.499954      0.196099      0.499893 
 H294  H    -0.441038      0.297299      0.441004 
 H295  H     0.441138      0.297301     -0.441210 
 H296  H     0.441133      0.202205     -0.441215 
 H297  H    -0.441043      0.202203      0.440999 
 C298  C     0.467020      0.032786     -0.276951 
 C299  C     0.467018      0.032788     -0.223265 
 C300  C    -0.499957     -0.000247     -0.196444 
 C301  C    -0.466933     -0.033285     -0.223250 
 C302  C    -0.466932     -0.033287     -0.276936 
 C303  C    -0.499955     -0.000251     -0.303757 
 H304  H     0.441148      0.058668     -0.202561 
 H305  H    -0.441063     -0.059164     -0.202533 
 H306  H    -0.441061     -0.059168     -0.297640 
 H307  H     0.441150      0.058665     -0.297668 
 C308  C     0.276888      0.032785     -0.467076 
 C309  C     0.223204      0.032782     -0.467074 
 C310  C     0.196392     -0.000249      0.499903 
 C311  C     0.223206     -0.033278      0.466878 
 C312  C     0.276890     -0.033275      0.466875 
 C313  C     0.303703     -0.000244      0.499898 
 H314  H     0.202493      0.058656     -0.441202 
 H315  H     0.202498     -0.059154      0.441008 
 H316  H     0.297601     -0.059149      0.441004 
 H317  H     0.297597      0.058661     -0.441207 
 O318  O     0.000048      0.499751      0.499900 
 Zn319  Zn    -0.043523     -0.456671     -0.456542 
 Zn320  Zn     0.043621      0.456170     -0.456528 
 Zn321  Zn     0.043609     -0.456675      0.456332 
 Zn322  Zn    -0.043521      0.456184      0.456334 
 O323  O     0.030782      0.383127     -0.469373 
 C324  C     0.000055      0.360892      0.499901 
 O325  O    -0.030672      0.383140      0.469176 
 O326  O    -0.030681      0.469034      0.383288 
 C327  C     0.000039      0.499758      0.361046 
 O328  O     0.030757     -0.469517      0.383287 
 O329  O     0.030770     -0.383630      0.469170 
 C330  C     0.000044     -0.361388      0.499892 
 O331  O    -0.030683     -0.383628     -0.469387 
 O332  O     0.116666      0.469017     -0.469373 
 C333  C     0.138902      0.499745      0.499904 
 O334  O     0.116654     -0.469527      0.469180 
 O335  O    -0.116567     -0.469511     -0.469391 
 C336  C    -0.138808      0.499758      0.499895 
 O337  O    -0.116566      0.469029      0.469179 
 O338  O    -0.030674     -0.469521     -0.383496 
 C339  C     0.000047      0.499748     -0.361248 
 O340  O     0.030769      0.469019     -0.383484 
 C341  C     0.033080     -0.277089      0.466870 
 C342  C     0.033083     -0.223409      0.466873 
 C343  C     0.000050     -0.196595      0.499898 
 C344  C    -0.032985     -0.223408     -0.467081 
 C345  C    -0.032987     -0.277088     -0.467084 
 C346  C     0.000046     -0.303901      0.499893 
 H347  H     0.058962     -0.202701      0.441004 
 H348  H    -0.058862     -0.202699     -0.441210 
 H349  H    -0.058867     -0.297795     -0.441215 
 H350  H     0.058957     -0.297797      0.440999 
 C351  C    -0.032980     -0.467214     -0.276951 
 C352  C    -0.032982     -0.467212     -0.223265 
 C353  C     0.000043      0.499753     -0.196444 
 C354  C     0.033067      0.466715     -0.223250 
 C355  C     0.033068      0.466713     -0.276936 
 C356  C     0.000045      0.499749     -0.303757 
 H357  H    -0.058852     -0.441332     -0.202561 
 H358  H     0.058937      0.440836     -0.202533 
 H359  H     0.058939      0.440832     -0.297640 
 H360  H    -0.058850     -0.441335     -0.297668 
 C361  C    -0.223112     -0.467215     -0.467076 
 C362  C    -0.276796     -0.467218     -0.467074 
 C363  C    -0.303608      0.499751      0.499903 
 C364  C    -0.276794      0.466722      0.466878 
 C365  C    -0.223110      0.466725      0.466875 
 C366  C    -0.196297      0.499756      0.499898 
 H367  H    -0.297507     -0.441344     -0.441202 
 H368  H    -0.297502      0.440846      0.441008 
 H369  H    -0.202399      0.440851      0.441004 
 H370  H    -0.202403     -0.441339     -0.441207 
 O371  O    -0.499953      0.499752      0.499899 
 Zn372  Zn    -0.456386     -0.456680     -0.456535 
 Zn373  Zn    -0.456382      0.456177      0.456340 
 Zn374  Zn     0.456472     -0.456666      0.456328 
 Zn375  Zn     0.456486      0.456176     -0.456534 
 O376  O    -0.469220      0.383133      0.469181 
 C377  C    -0.499947      0.360891      0.499901 
 O378  O     0.469327      0.383133     -0.469377 
 O379  O     0.383440      0.469027     -0.469380 
 C380  C     0.361192      0.499756      0.499897 
 O381  O     0.383428     -0.469514      0.469175 
 O382  O     0.469314     -0.383623      0.469169 
 C383  C    -0.499958     -0.361388      0.499894 
 O384  O    -0.469231     -0.383636     -0.469379 
 O385  O    -0.469233      0.469028      0.383294 
 C386  C    -0.499957      0.499755      0.361047 
 O387  O     0.469320     -0.469516      0.383284 
 O388  O    -0.469229     -0.469529     -0.383489 
 C389  C    -0.499947      0.499745     -0.361248 
 O390  O     0.469337      0.469017     -0.383489 
 O391  O    -0.383340     -0.469525     -0.469376 
 C392  C    -0.361097      0.499748      0.499906 
 O393  O    -0.383338      0.469019      0.469189 
 C394  C     0.467013     -0.277078      0.466868 
 C395  C     0.467017     -0.223397      0.466870 
 C396  C    -0.499947     -0.196595      0.499899 
 C397  C    -0.466913     -0.223418     -0.467076 
 C398  C    -0.466917     -0.277099     -0.467078 
 C399  C    -0.499954     -0.303902      0.499894 
 H400  H     0.441140     -0.202681      0.440997 
 H401  H    -0.441032     -0.202719     -0.441202 
 H402  H    -0.441038     -0.297815     -0.441206 
 H403  H     0.441133     -0.297777      0.440994 
 C404  C    -0.466933     -0.467216     -0.276944 
 C405  C    -0.466937     -0.467213     -0.223258 
 C406  C    -0.499958      0.499755     -0.196444 
 C407  C     0.467023      0.466720     -0.223257 
 C408  C     0.467027      0.466717     -0.276943 
 C409  C    -0.499951      0.499749     -0.303757 
 H410  H    -0.441072     -0.441335     -0.202548 
 H411  H     0.441155      0.440844     -0.202546 
 H412  H     0.441162      0.440839     -0.297654 
 H413  H    -0.441065     -0.441341     -0.297655 
 C414  C     0.276879     -0.467218      0.466869 
 C415  C     0.223195     -0.467221      0.466871 
 C416  C     0.196391      0.499747      0.499903 
 C417  C     0.223215      0.466718     -0.467068 
 C418  C     0.276899      0.466721     -0.467070 
 C419  C     0.303703      0.499753      0.499898 
 H420  H     0.202478     -0.441347      0.440996 
 H421  H     0.202513      0.440841     -0.441192 
 H422  H     0.297616      0.440847     -0.441196 
 H423  H     0.297581     -0.441341      0.440993 
loop_  
_geom_bond_atom_site_label_1  
_geom_bond_atom_site_label_2  
O0   Zn1 
O0   Zn2 
O0   Zn3 
O0   Zn4 
Zn1   O13 
Zn1   O17 
Zn1   O20 
Zn2   O5 
Zn2   O14 
Zn2   O22 
Zn3   O10 
Zn3   O11 
Zn3   O16 
Zn4   O7 
Zn4   O8 
Zn4   O19 
O5   C6 
C6   O7 
C6   C131 
O8   C9 
C9   O10 
C9   C247 
O11   C12 
C12   O13 
C12   C28 
O14   C15 
C15   O16 
C15   C98 
O17   C18 
C18   O19 
C18   C48 
O20   C21 
C21   O22 
C21   C38 
C23   C24 
C23   C28 
C23   H32 
C24   C25 
C24   H29 
C25   C26 
C25   C112 
C26   C27 
C26   H30 
C27   C28 
C27   H31 
C33   C34 
C33   C38 
C33   H42 
C34   C35 
C34   H39 
C35   C36 
C35   C227 
C36   C37 
C36   H40 
C37   C38 
C37   H41 
C43   C44 
C43   C48 
C43   H52 
C44   C45 
C44   H49 
C45   C46 
C45   C74 
C46   C47 
C46   H50 
C47   C48 
C47   H51 
O53   Zn54 
O53   Zn55 
O53   Zn56 
O53   Zn57 
Zn54   O66 
Zn54   O70 
Zn54   O73 
Zn55   O58 
Zn55   O67 
Zn55   O75 
Zn56   O63 
Zn56   O64 
Zn56   O69 
Zn57   O60 
Zn57   O61 
Zn57   O72 
O58   C59 
C59   O60 
C59   C184 
O61   C62 
C62   O63 
C62   C101 
O64   C65 
C65   O66 
C65   C81 
O67   C68 
C68   O69 
C68   C300 
O70   C71 
C71   O72 
C71   C91 
O73   C74 
C74   O75 
C76   C77 
C76   C81 
C76   H85 
C77   C78 
C77   H82 
C78   C79 
C78   C165 
C79   C80 
C79   H83 
C80   C81 
C80   H84 
C86   C87 
C86   C91 
C86   H95 
C87   C88 
C87   H92 
C88   C89 
C88   C274 
C89   C90 
C89   H93 
C90   C91 
C90   H94 
C96   C97 
C96   C101 
C96   H105 
C97   C98 
C97   H102 
C98   C99 
C99   C100 
C99   H103 
C100   C101 
C100   H104 
O106   Zn107 
O106   Zn108 
O106   Zn109 
O106   Zn110 
Zn107   O119 
Zn107   O123 
Zn107   O126 
Zn108   O111 
Zn108   O120 
Zn108   O128 
Zn109   O116 
Zn109   O117 
Zn109   O122 
Zn110   O113 
Zn110   O114 
Zn110   O125 
O111   C112 
C112   O113 
O114   C115 
C115   O116 
C115   C154 
O117   C118 
C118   O119 
C118   C134 
O120   C121 
C121   O122 
C121   C353 
O123   C124 
C124   O125 
C124   C144 
O126   C127 
C127   O128 
C127   C204 
C129   C130 
C129   C134 
C129   H138 
C130   C131 
C130   H135 
C131   C132 
C132   C133 
C132   H136 
C133   C134 
C133   H137 
C139   C140 
C139   C144 
C139   H148 
C140   C141 
C140   H145 
C141   C142 
C141   C327 
C142   C143 
C142   H146 
C143   C144 
C143   H147 
C149   C150 
C149   C154 
C149   H158 
C150   C151 
C150   H155 
C151   C152 
C151   C174 
C152   C153 
C152   H156 
C153   C154 
C153   H157 
O159   Zn160 
O159   Zn161 
O159   Zn162 
O159   Zn163 
Zn160   O172 
Zn160   O176 
Zn160   O179 
Zn161   O164 
Zn161   O173 
Zn161   O181 
Zn162   O169 
Zn162   O170 
Zn162   O175 
Zn163   O166 
Zn163   O167 
Zn163   O178 
O164   C165 
C165   O166 
O167   C168 
C168   O169 
C168   C406 
O170   C171 
C171   O172 
C171   C187 
O173   C174 
C174   O175 
O176   C177 
C177   O178 
C177   C207 
O179   C180 
C180   O181 
C180   C197 
C182   C183 
C182   C187 
C182   H191 
C183   C184 
C183   H188 
C184   C185 
C185   C186 
C185   H189 
C186   C187 
C186   H190 
C192   C193 
C192   C197 
C192   H201 
C193   C194 
C193   H198 
C194   C195 
C194   C386 
C195   C196 
C195   H199 
C196   C197 
C196   H200 
C202   C203 
C202   C207 
C202   H211 
C203   C204 
C203   H208 
C204   C205 
C205   C206 
C205   H209 
C206   C207 
C206   H210 
O212   Zn213 
O212   Zn214 
O212   Zn215 
O212   Zn216 
Zn213   O225 
Zn213   O229 
Zn213   O232 
Zn214   O217 
Zn214   O226 
Zn214   O234 
Zn215   O222 
Zn215   O223 
Zn215   O228 
Zn216   O219 
Zn216   O220 
Zn216   O231 
O217   C218 
C218   O219 
C218   C343 
O220   C221 
C221   O222 
C221   C260 
O223   C224 
C224   O225 
C224   C240 
O226   C227 
C227   O228 
O229   C230 
C230   O231 
C230   C250 
O232   C233 
C233   O234 
C233   C310 
C235   C236 
C235   C240 
C235   H244 
C236   C237 
C236   H241 
C237   C238 
C237   C324 
C238   C239 
C238   H242 
C239   C240 
C239   H243 
C245   C246 
C245   C250 
C245   H254 
C246   C247 
C246   H251 
C247   C248 
C248   C249 
C248   H252 
C249   C250 
C249   H253 
C255   C256 
C255   C260 
C255   H264 
C256   C257 
C256   H261 
C257   C258 
C257   C280 
C258   C259 
C258   H262 
C259   C260 
C259   H263 
O265   Zn266 
O265   Zn267 
O265   Zn268 
O265   Zn269 
Zn266   O278 
Zn266   O282 
Zn266   O285 
Zn267   O270 
Zn267   O279 
Zn267   O287 
Zn268   O275 
Zn268   O276 
Zn268   O281 
Zn269   O272 
Zn269   O273 
Zn269   O284 
O270   C271 
C271   O272 
C271   C396 
O273   C274 
C274   O275 
O276   C277 
C277   O278 
C277   C293 
O279   C280 
C280   O281 
O282   C283 
C283   O284 
C283   C313 
O285   C286 
C286   O287 
C286   C303 
C288   C289 
C288   C293 
C288   H297 
C289   C290 
C289   H294 
C290   C291 
C290   C377 
C291   C292 
C291   H295 
C292   C293 
C292   H296 
C298   C299 
C298   C303 
C298   H307 
C299   C300 
C299   H304 
C300   C301 
C301   C302 
C301   H305 
C302   C303 
C302   H306 
C308   C309 
C308   C313 
C308   H317 
C309   C310 
C309   H314 
C310   C311 
C311   C312 
C311   H315 
C312   C313 
C312   H316 
O318   Zn319 
O318   Zn320 
O318   Zn321 
O318   Zn322 
Zn319   O331 
Zn319   O335 
Zn319   O338 
Zn320   O323 
Zn320   O332 
Zn320   O340 
Zn321   O328 
Zn321   O329 
Zn321   O334 
Zn322   O325 
Zn322   O326 
Zn322   O337 
O323   C324 
C324   O325 
O326   C327 
C327   O328 
O329   C330 
C330   O331 
C330   C346 
O332   C333 
C333   O334 
C333   C416 
O335   C336 
C336   O337 
C336   C366 
O338   C339 
C339   O340 
C339   C356 
C341   C342 
C341   C346 
C341   H350 
C342   C343 
C342   H347 
C343   C344 
C344   C345 
C344   H348 
C345   C346 
C345   H349 
C351   C352 
C351   C356 
C351   H360 
C352   C353 
C352   H357 
C353   C354 
C354   C355 
C354   H358 
C355   C356 
C355   H359 
C361   C362 
C361   C366 
C361   H370 
C362   C363 
C362   H367 
C363   C364 
C363   C392 
C364   C365 
C364   H368 
C365   C366 
C365   H369 
O371   Zn372 
O371   Zn373 
O371   Zn374 
O371   Zn375 
Zn372   O384 
Zn372   O388 
Zn372   O391 
Zn373   O376 
Zn373   O385 
Zn373   O393 
Zn374   O381 
Zn374   O382 
Zn374   O387 
Zn375   O378 
Zn375   O379 
Zn375   O390 
O376   C377 
C377   O378 
O379   C380 
C380   O381 
C380   C419 
O382   C383 
C383   O384 
C383   C399 
O385   C386 
C386   O387 
O388   C389 
C389   O390 
C389   C409 
O391   C392 
C392   O393 
C394   C395 
C394   C399 
C394   H403 
C395   C396 
C395   H400 
C396   C397 
C397   C398 
C397   H401 
C398   C399 
C398   H402 
C404   C405 
C404   C409 
C404   H413 
C405   C406 
C405   H410 
C406   C407 
C407   C408 
C407   H411 
C408   C409 
C408   H412 
C414   C415 
C414   C419 
C414   H423 
C415   C416 
C415   H420 
C416   C417 
C417   C418 
C417   H421 
C418   C419 
C418   H422 
  
#END  
