data_
_symmetry_cell_setting           triclinic 
_symmetry_space_group_name_H-M   'P 1' 
_symmetry_Int_Tables_number      1 
loop_ 
_symmetry_equiv_pos_site_id 
_symmetry_equiv_pos_as_xyz 
1 x,y,z 
_cell_length_a             14.375923        
_cell_length_b             16.332793        
_cell_length_c             19.027016        
_cell_angle_alpha          89.715725        
_cell_angle_beta           89.763339        
_cell_angle_gamma          89.824914        
loop_  
_atom_site_label   
_atom_site_type_symbol  
_atom_site_fract_x  
_atom_site_fract_y  
_atom_site_fract_z 
 Cu0  Cu    -0.001987     -0.000424      0.069779 
 Cu1  Cu     0.000765     -0.000536     -0.066932 
 O2  O    -0.105247      0.077608     -0.058003 
 C3  C    -0.124869      0.111371      0.000467 
 O4  O    -0.090370      0.092004      0.059735 
 O5  O     0.090773      0.091432     -0.058587 
 C6  C     0.122557      0.112676      0.001040 
 O7  O     0.101599      0.079091      0.059472 
 O8  O    -0.086188     -0.094529     -0.057341 
 C9  C    -0.122680     -0.113389      0.001665 
 O10  O    -0.106290     -0.078455      0.059938 
 O11  O     0.104442     -0.080196     -0.056223 
 C12  C     0.123405     -0.112509      0.003137 
 O13  O     0.087434     -0.092247      0.061806 
 Cu14  Cu     0.499409     -0.499215      0.067008 
 Cu15  Cu    -0.497836     -0.499304     -0.069703 
 O16  O     0.412716     -0.407506     -0.061726 
 C17  C     0.376743     -0.387254     -0.003056 
 O18  O     0.395719     -0.419564      0.056303 
 O19  O    -0.393553     -0.421253     -0.059855 
 C20  C    -0.377158     -0.386340     -0.001574 
 O21  O    -0.413648     -0.405214      0.057429 
 O22  O     0.398600      0.421157     -0.059399 
 C23  C     0.377625      0.387579     -0.000968 
 O24  O     0.409403      0.408819      0.058662 
 O25  O    -0.409420      0.408296     -0.059679 
 C26  C    -0.374910      0.388925     -0.000416 
 O27  O    -0.394567      0.422651      0.058063 
 C28  C    -0.320080      0.257477     -0.050346 
 C29  C    -0.306782      0.319417     -0.000617 
 C30  C    -0.234574      0.313671      0.048750 
 C31  C    -0.179502      0.242943      0.050280 
 C32  C    -0.192934      0.180925      0.000642 
 C33  C    -0.265220      0.186628     -0.048662 
 O34  O    -0.215723      0.373012      0.097294 
 C35  C    -0.177942      0.448066      0.069552 
 C36  C    -0.148432     -0.496001      0.129375 
 C37  C    -0.106331     -0.414703      0.103743 
 C38  C    -0.082599     -0.355199      0.163112 
 O39  O    -0.284164      0.127249     -0.097149 
 C40  C    -0.321893      0.052204     -0.069353 
 C41  C    -0.351441     -0.003743     -0.129155 
 C42  C    -0.393520     -0.085041     -0.103505 
 C43  C    -0.417255     -0.144558     -0.162863 
 H44  H    -0.123617      0.239385      0.088686 
 H45  H    -0.375901      0.261071     -0.088805 
 H46  H    -0.269255      0.021322     -0.036640 
 H47  H    -0.381773      0.067239     -0.035423 
 H48  H    -0.118033      0.433035      0.035649 
 H49  H    -0.230540      0.478969      0.036818 
 H50  H    -0.402405      0.027883     -0.162766 
 H51  H    -0.290927     -0.016866     -0.162844 
 H52  H    -0.208964     -0.482878      0.163043 
 H53  H    -0.097492      0.472365      0.163002 
 H54  H    -0.043235     -0.427435      0.072591 
 H55  H    -0.155544     -0.384605      0.067744 
 H56  H    -0.344290     -0.115125     -0.067510 
 H57  H    -0.456609     -0.072313     -0.072344 
 H58  H    -0.448411     -0.200986     -0.141681 
 H59  H    -0.467032     -0.117458     -0.200056 
 H60  H    -0.354582     -0.162328     -0.192418 
 H61  H    -0.051424     -0.298775      0.141941 
 H62  H    -0.145277     -0.337422      0.192657 
 H63  H    -0.032839     -0.382314      0.200310 
 N64  N    -0.003294     -0.018822      0.319889 
 C65  C    -0.013801     -0.103032      0.292631 
 C66  C    -0.082197      0.030746      0.293684 
 C67  C     0.084058      0.015436      0.290958 
 C68  C    -0.086077      0.028940      0.211803 
 H69  H    -0.147568      0.007450      0.316697 
 H70  H    -0.073920      0.094136      0.312090 
 C71  C    -0.014364     -0.102735      0.210362 
 H72  H     0.043106     -0.141598      0.313191 
 H73  H    -0.079163     -0.129017      0.313239 
 C74  C     0.081282      0.016933      0.209059 
 H75  H     0.094305      0.077846      0.311271 
 H76  H     0.143202     -0.021753      0.309759 
 H77  H     0.043751     -0.139172      0.189211 
 H78  H    -0.078692     -0.130678      0.190295 
 H79  H    -0.151261      0.000598      0.193839 
 H80  H    -0.085637      0.091552      0.190380 
 H81  H     0.140427     -0.017704      0.186975 
 N82  N    -0.006797     -0.018184      0.182880 
 H83  H     0.088128      0.080186      0.189694 
 C84  C     0.237059      0.202767     -0.060591 
 C85  C     0.188950      0.183681      0.001574 
 C86  C     0.200932      0.231513      0.062067 
 C87  C     0.263046      0.297545      0.060643 
 C88  C     0.311210      0.316589     -0.001506 
 C89  C     0.299267      0.268730     -0.061987 
 O90  O     0.152705      0.212127      0.121927 
 C91  C     0.104225      0.277293      0.156628 
 C92  C     0.024356      0.239593      0.198440 
 C93  C    -0.046442      0.301491      0.227646 
 C94  C    -0.131838      0.262223      0.262472 
 O95  O     0.347540      0.288088     -0.121831 
 C96  C     0.396031      0.222908     -0.156501 
 C97  C     0.475844      0.260613     -0.198372 
 C98  C    -0.453349      0.198729     -0.227586 
 C99  C    -0.368021      0.238020     -0.262489 
 H100  H     0.273402      0.333193      0.108290 
 H101  H     0.226679      0.167143     -0.108247 
 H102  H     0.421990      0.178629     -0.117215 
 H103  H     0.346878      0.191412     -0.191133 
 H104  H     0.153375      0.308730      0.191303 
 H105  H     0.078321      0.321626      0.117366 
 H106  H     0.447815      0.297535     -0.242015 
 H107  H    -0.487701      0.303073     -0.163345 
 H108  H    -0.012090      0.197173      0.163373 
 H109  H     0.052325      0.202632      0.242081 
 H110  H    -0.012289      0.340836      0.266374 
 H111  H    -0.069545      0.341747      0.184630 
 H112  H    -0.430171      0.158516     -0.184564 
 H113  H    -0.487516      0.159338     -0.266273 
 H114  H    -0.318459      0.191027     -0.280274 
 H115  H    -0.387642      0.274453     -0.308849 
 H116  H    -0.330912      0.278159     -0.225918 
 H117  H    -0.181386      0.309231      0.280249 
 H118  H    -0.168933      0.222132      0.225855 
 H119  H    -0.112298      0.225746      0.308827 
 C120  C     0.303242     -0.270996      0.059212 
 C121  C     0.309050     -0.317294     -0.002396 
 C122  C     0.255767     -0.297256     -0.061823 
 C123  C     0.196849     -0.228807     -0.059116 
 C124  C     0.191076     -0.182485      0.002481 
 C125  C     0.244381     -0.202509      0.061900 
 O126  O     0.262151     -0.347576     -0.119169 
 C127  C     0.223798     -0.324533     -0.185965 
 C128  C     0.281217     -0.255804     -0.218733 
 C129  C     0.266361     -0.245681     -0.298134 
 C130  C     0.327821     -0.179216     -0.331085 
 O131  O     0.238035     -0.152168      0.119234 
 C132  C     0.276370     -0.175219      0.186034 
 C133  C     0.218914     -0.243924      0.218803 
 C134  C     0.233741     -0.254039      0.298208 
 C135  C     0.172254     -0.320489      0.331153 
 H136  H     0.153583     -0.212714     -0.104146 
 H137  H     0.346494     -0.287099      0.104247 
 H138  H     0.350330     -0.191943      0.180651 
 H139  H     0.273485     -0.120186      0.219195 
 H140  H     0.226707     -0.379562     -0.219130 
 H141  H     0.149830     -0.307837     -0.180576 
 H142  H     0.144580     -0.232716      0.209071 
 H143  H     0.235184     -0.302028      0.192457 
 H144  H     0.264929     -0.197711     -0.192374 
 H145  H     0.355559     -0.266991     -0.209014 
 H146  H     0.280644     -0.304386     -0.324329 
 H147  H     0.192817     -0.231042     -0.308388 
 H148  H     0.307278     -0.268689      0.308479 
 H149  H     0.219462     -0.195328      0.324394 
 H150  H     0.182917     -0.324665      0.388159 
 H151  H     0.098021     -0.308075      0.322330 
 H152  H     0.188743     -0.380765      0.309174 
 H153  H     0.317135     -0.175033     -0.388087 
 H154  H     0.311325     -0.118946     -0.309095 
 H155  H     0.402060     -0.191618     -0.322278 
 N156  N    -0.487894      0.498363      0.317387 
 C157  C    -0.393246     -0.490170      0.288418 
 C158  C     0.476258      0.419452      0.290922 
 C159  C     0.452802     -0.434379      0.290313 
 C160  C     0.472215      0.419842      0.208957 
 H161  H    -0.478539      0.369481      0.310076 
 H162  H     0.406654      0.408217      0.313086 
 C163  C    -0.394822     -0.492550      0.206402 
 H164  H    -0.366209     -0.430904      0.306510 
 H165  H    -0.346849      0.461988      0.309763 
 C166  C     0.451880     -0.434194      0.208317 
 H167  H     0.381709     -0.441449      0.311289 
 H168  H     0.479087     -0.375522      0.310210 
 H169  H    -0.364813     -0.436001      0.184136 
 H170  H    -0.352310      0.455994      0.186930 
 H171  H    -0.487475      0.368302      0.186998 
 H172  H     0.399926      0.412301      0.191091 
 H173  H     0.478915     -0.375741      0.187444 
 N174  N    -0.490969      0.497688      0.180487 
 H175  H     0.380099     -0.440296      0.188973 
 C176  C    -0.176786     -0.244703     -0.049141 
 C177  C    -0.189011     -0.183900      0.001808 
 C178  C    -0.262589     -0.187981      0.050473 
 C179  C    -0.323092     -0.255001      0.049208 
 C180  C    -0.310819     -0.315836     -0.001705 
 C181  C    -0.237195     -0.311791     -0.050330 
 O182  O    -0.273978     -0.126572      0.098416 
 C183  C    -0.365684     -0.092524      0.105351 
 C184  C    -0.355549     -0.001884      0.122268 
 C185  C    -0.447862      0.045814      0.120347 
 C186  C    -0.435596      0.138257      0.130840 
 O187  O    -0.225752     -0.373245     -0.098223 
 C188  C    -0.134019     -0.407242     -0.105130 
 C189  C    -0.144089     -0.497883     -0.122066 
 C190  C    -0.051750      0.454460     -0.120121 
 C191  C    -0.063958      0.362013     -0.130627 
 H192  H    -0.379358     -0.258816      0.087770 
 H193  H    -0.120551     -0.240872     -0.087727 
 H194  H    -0.096637     -0.374422     -0.147265 
 H195  H    -0.094990     -0.398944     -0.055960 
 H196  H    -0.404754     -0.100810      0.056198 
 H197  H    -0.403059     -0.125317      0.147505 
 H198  H    -0.193298      0.474006     -0.084599 
 H199  H    -0.175911      0.495121     -0.174203 
 H200  H    -0.323694      0.005110      0.174394 
 H201  H    -0.306345      0.026197      0.084780 
 H202  H    -0.482524      0.035256      0.069693 
 H203  H    -0.495113      0.021336      0.160952 
 H204  H    -0.004491      0.478964     -0.160709 
 H205  H    -0.017122      0.465026     -0.069455 
 H206  H     0.003404      0.329968     -0.129330 
 H207  H    -0.107838      0.335132     -0.089101 
 H208  H    -0.096866      0.348503     -0.181250 
 H209  H     0.497060      0.170332      0.129555 
 H210  H    -0.402661      0.151759      0.181455 
 H211  H    -0.391717      0.165113      0.089302 
 Cu212  Cu    -0.001876     -0.000423     -0.430589 
 Cu213  Cu     0.001108     -0.001408      0.432945 
 O214  O    -0.110852      0.070847      0.443122 
 C215  C    -0.127480      0.108711     -0.499784 
 O216  O    -0.089457      0.092879     -0.440798 
 O217  O     0.082691      0.096869      0.442744 
 C218  C     0.120356      0.113778     -0.498515 
 O219  O     0.104357      0.076135     -0.440994 
 O220  O    -0.080158     -0.098753      0.445083 
 C221  C    -0.120486     -0.114609     -0.496603 
 O222  O    -0.107301     -0.076779     -0.439211 
 O223  O     0.111512     -0.074787      0.442105 
 C224  C     0.122982     -0.113014     -0.499960 
 O225  O     0.084004     -0.095552     -0.441670 
 Cu226  Cu     0.499026     -0.498398     -0.432864 
 Cu227  Cu    -0.497999     -0.499379      0.430670 
 O228  O     0.416124     -0.404247      0.441758 
 C229  C     0.377144     -0.386790     -0.499952 
 O230  O     0.388623     -0.425013     -0.442016 
 O231  O    -0.392569     -0.423026      0.439291 
 C232  C    -0.379380     -0.385200      0.496684 
 O233  O    -0.419703     -0.401058     -0.445001 
 O234  O     0.395764      0.424066      0.441079 
 C235  C     0.379756      0.386432      0.498604 
 O236  O     0.417429      0.403336     -0.442658 
 O237  O    -0.410413      0.407319      0.440866 
 C238  C    -0.372377      0.391488      0.499848 
 O239  O    -0.389019      0.429337     -0.443053 
 C240  C    -0.312220      0.264722      0.445184 
 C241  C    -0.305883      0.320188     -0.499130 
 C242  C    -0.241880      0.307066     -0.444511 
 C243  C    -0.187484      0.235569     -0.445192 
 C244  C    -0.193930      0.180040      0.499178 
 C245  C    -0.258004      0.193119      0.444601 
 O246  O    -0.234221      0.365064     -0.392863 
 C247  C    -0.161013      0.360456     -0.341634 
 C248  C    -0.066607      0.379238     -0.375181 
 C249  C     0.014107      0.381335     -0.322531 
 C250  C     0.108541      0.398677     -0.357332 
 O251  O    -0.265769      0.135051      0.393020 
 C252  C    -0.338964      0.139688      0.341784 
 C253  C    -0.433403      0.121081      0.375346 
 C254  C     0.485877      0.119050      0.322699 
 C255  C     0.391422      0.101829      0.357510 
 H256  H    -0.138152      0.223832     -0.402842 
 H257  H    -0.361496      0.276485      0.402802 
 H258  H    -0.338030      0.199810      0.315302 
 H259  H    -0.322469      0.093732      0.301406 
 H260  H    -0.177585      0.406331     -0.301207 
 H261  H    -0.161839      0.300294     -0.315216 
 H262  H    -0.429338      0.061797      0.403002 
 H263  H    -0.450151      0.166606      0.415970 
 H264  H    -0.049765      0.333778     -0.415836 
 H265  H    -0.070786      0.438541     -0.402797 
 H266  H    -0.000171      0.428156     -0.282475 
 H267  H     0.017688      0.322312     -0.294389 
 H268  H     0.482381      0.178064      0.294537 
 H269  H    -0.499915      0.072194      0.282659 
 H270  H     0.335219      0.101291      0.318512 
 H271  H     0.391112      0.042260      0.384635 
 H272  H     0.373973      0.148914      0.396563 
 H273  H     0.164737      0.399270     -0.318329 
 H274  H     0.126068      0.351624     -0.396394 
 H275  H     0.108764      0.458254     -0.384444 
 N276  N    -0.008889      0.002546     -0.180408 
 C277  C     0.048271     -0.065568     -0.208235 
 C278  C    -0.105036     -0.007228     -0.206320 
 C279  C     0.027916      0.080394     -0.208883 
 C280  C    -0.106614     -0.009615     -0.288335 
 H281  H    -0.135038     -0.063778     -0.184050 
 H282  H    -0.147555      0.044224     -0.186849 
 C283  C     0.047346     -0.065390     -0.290230 
 H284  H     0.120052     -0.059457     -0.188892 
 H285  H     0.021245     -0.124022     -0.187357 
 C286  C     0.023871      0.080776     -0.290848 
 H287  H    -0.012401      0.131932     -0.186928 
 H288  H     0.100204      0.087945     -0.191019 
 H289  H     0.118437     -0.058314     -0.311209 
 H290  H     0.021068     -0.124252     -0.310122 
 H291  H    -0.133644     -0.068885     -0.306424 
 H292  H    -0.153017      0.038221     -0.309682 
 H293  H     0.093473      0.092015     -0.313013 
 N294  N    -0.011969      0.001859     -0.317307 
 H295  H    -0.021339      0.130741     -0.310005 
 C296  C     0.307178      0.265993     -0.442008 
 C297  C     0.312334      0.315915      0.497952 
 C298  C     0.254681      0.300534      0.439901 
 C299  C     0.192872      0.234262      0.442121 
 C300  C     0.187752      0.184314     -0.497853 
 C301  C     0.245424      0.199681     -0.439810 
 O302  O     0.262913      0.347925      0.380701 
 C303  C     0.180199      0.378086      0.347302 
 C304  C     0.211809      0.431829      0.286076 
 C305  C     0.133133      0.472041      0.243483 
 C306  C     0.168146     -0.483563      0.177294 
 O307  O     0.237220      0.152266     -0.380622 
 C308  C     0.319946      0.122133     -0.347221 
 C309  C     0.288344      0.068409     -0.285979 
 C310  C     0.367022      0.028192     -0.243391 
 C311  C     0.332016     -0.016176     -0.177186 
 H312  H     0.149926      0.221414      0.396346 
 H313  H     0.350107      0.278852     -0.396227 
 H314  H     0.360923      0.086908     -0.385760 
 H315  H     0.362707      0.173360     -0.328626 
 H316  H     0.137433      0.326869      0.328692 
 H317  H     0.139223      0.413301      0.385848 
 H318  H     0.244646      0.105320     -0.250494 
 H319  H     0.243202      0.019971     -0.306706 
 H320  H     0.256933      0.480270      0.306820 
 H321  H     0.255526      0.394935      0.250592 
 H322  H     0.082502      0.425641      0.227695 
 H323  H     0.094544     -0.484895      0.277128 
 H324  H     0.405588     -0.014892     -0.277033 
 H325  H     0.417672      0.074583     -0.227623 
 H326  H     0.389566     -0.044984     -0.148265 
 H327  H     0.296722      0.026107     -0.140959 
 H328  H     0.282212     -0.064446     -0.190282 
 H329  H     0.110597     -0.454755      0.148372 
 H330  H     0.217936     -0.435290      0.190410 
 H331  H     0.203459      0.474173      0.141061 
 C332  C     0.273825     -0.176211      0.465522 
 C333  C     0.187555     -0.185094      0.499073 
 C334  C     0.162400     -0.258478     -0.467164 
 C335  C     0.226255     -0.323629     -0.465486 
 C336  C     0.312556     -0.314720     -0.498986 
 C337  C     0.337735     -0.241316      0.467295 
 O338  O     0.074580     -0.262662     -0.439068 
 C339  C     0.046449     -0.332830     -0.398891 
 C340  C    -0.053742     -0.318159     -0.375868 
 C341  C    -0.089678     -0.380574     -0.321638 
 C342  C    -0.192588     -0.368208     -0.302837 
 O343  O     0.425589     -0.237094      0.439263 
 C344  C     0.453700     -0.166929      0.399074 
 C345  C    -0.446068     -0.181526      0.376123 
 C346  C    -0.410156     -0.119117      0.321878 
 C347  C    -0.307203     -0.131374      0.303163 
 H348  H     0.208390     -0.381581     -0.439999 
 H349  H     0.291671     -0.118271      0.440007 
 H350  H     0.407503     -0.159603      0.353416 
 H351  H     0.448462     -0.111453      0.431617 
 H352  H     0.051587     -0.388288     -0.431464 
 H353  H     0.092694     -0.340224     -0.353269 
 H354  H    -0.401140     -0.180147      0.422875 
 H355  H    -0.439095     -0.243666      0.354329 
 H356  H    -0.060618     -0.256029     -0.354036 
 H357  H    -0.098720     -0.319458     -0.422595 
 H358  H    -0.079629     -0.442768     -0.342235 
 H359  H    -0.047287     -0.376811     -0.273718 
 H360  H    -0.452476     -0.122979      0.273927 
 H361  H    -0.420333     -0.056915      0.342422 
 H362  H    -0.284019     -0.086770      0.263503 
 H363  H    -0.263052     -0.123580      0.349668 
 H364  H    -0.294144     -0.192939      0.282123 
 H365  H    -0.215794     -0.412830     -0.263198 
 H366  H    -0.205519     -0.306653     -0.281734 
 H367  H    -0.236812     -0.375890     -0.349316 
 N368  N    -0.493033     -0.481569     -0.182805 
 C369  C    -0.413725      0.471340     -0.211725 
 C370  C     0.418909      0.483268     -0.208976 
 C371  C    -0.485522     -0.397017     -0.210295 
 C372  C     0.416132      0.484741     -0.290875 
 H373  H     0.412098      0.420017     -0.189599 
 H374  H     0.359744     -0.482115     -0.186899 
 C375  C    -0.417601      0.469531     -0.293606 
 H376  H    -0.348555      0.499705     -0.193758 
 H377  H    -0.414138      0.408726     -0.190303 
 C378  C    -0.486101     -0.396732     -0.292564 
 H379  H     0.456345     -0.360604     -0.189142 
 H380  H    -0.421206     -0.369044     -0.190237 
 H381  H    -0.352251      0.492872     -0.316620 
 H382  H    -0.425820      0.406135     -0.312011 
 H383  H     0.405939      0.422318     -0.311174 
 H384  H     0.356955     -0.478115     -0.309683 
 H385  H    -0.420765     -0.370708     -0.313182 
 N386  N    -0.496545     -0.480954     -0.319813 
 H387  H     0.456956     -0.358206     -0.313120 
 C388  C    -0.186906     -0.236362      0.444851 
 C389  C    -0.187977     -0.184417     -0.496801 
 C390  C    -0.251432     -0.197406     -0.441557 
 C391  C    -0.312989     -0.263426     -0.444783 
 C392  C    -0.311892     -0.315391      0.496882 
 C393  C    -0.248413     -0.302420      0.441651 
 O394  O    -0.250531     -0.149453     -0.382936 
 C395  C    -0.334718     -0.107009     -0.364560 
 C396  C    -0.339447     -0.026373     -0.404942 
 C397  C    -0.421598      0.027985     -0.382361 
 C398  C    -0.422204      0.111723     -0.419071 
 O399  O    -0.249282     -0.350401      0.383046 
 C400  C    -0.165073     -0.392824      0.364697 
 C401  C    -0.160365     -0.473476      0.405055 
 C402  C    -0.078180      0.472191      0.382501 
 C403  C    -0.077592      0.388435      0.419180 
 H404  H    -0.360776     -0.273783     -0.400995 
 H405  H    -0.139137     -0.225997      0.401054 
 H406  H    -0.167098     -0.403857      0.307704 
 H407  H    -0.103407     -0.355022      0.375229 
 H408  H    -0.396400     -0.144808     -0.375048 
 H409  H    -0.332642     -0.095952     -0.307571 
 H410  H    -0.156014     -0.461330      0.461881 
 H411  H    -0.225740      0.492653      0.397555 
 H412  H    -0.274058      0.007491     -0.397489 
 H413  H    -0.343856     -0.038544     -0.461761 
 H414  H    -0.487222     -0.004066     -0.393278 
 H415  H    -0.419230      0.036861     -0.325072 
 H416  H    -0.080488      0.463342      0.325207 
 H417  H    -0.012574     -0.495753      0.393467 
 H418  H    -0.018246      0.350703      0.402359 
 H419  H    -0.073375      0.395133      0.476415 
 H420  H    -0.141235      0.353976      0.407736 
 H421  H    -0.481522      0.149475     -0.402225 
 H422  H    -0.358538      0.146174     -0.407682 
 H423  H    -0.426488      0.104997     -0.476301 
loop_  
_geom_bond_atom_site_label_1  
_geom_bond_atom_site_label_2  
Cu0   Cu1 
Cu0   O4 
Cu0   O7 
Cu0   O10 
Cu0   O13 
Cu0   N82 
Cu1   O2 
Cu1   O5 
Cu1   O8 
Cu1   O11 
Cu1   N276 
O2   C3 
C3   O4 
C3   C32 
O5   C6 
C6   O7 
C6   C85 
O8   C9 
C9   O10 
C9   C177 
O11   C12 
C12   O13 
C12   C124 
Cu14   Cu15 
Cu14   O18 
Cu14   O21 
Cu14   O24 
Cu14   O27 
Cu14   N174 
Cu15   O16 
Cu15   O19 
Cu15   O22 
Cu15   O25 
Cu15   N368 
O16   C17 
C17   O18 
C17   C121 
O19   C20 
C20   O21 
C20   C180 
O22   C23 
C23   O24 
C23   C88 
O25   C26 
C26   O27 
C26   C29 
C28   C29 
C28   C33 
C28   H45 
C29   C30 
C30   C31 
C30   O34 
C31   C32 
C31   H44 
C32   C33 
C33   O39 
O34   C35 
C35   C36 
C35   H48 
C35   H49 
C36   C37 
C36   H52 
C36   H53 
C37   C38 
C37   H54 
C37   H55 
C38   H61 
C38   H62 
C38   H63 
O39   C40 
C40   C41 
C40   H46 
C40   H47 
C41   C42 
C41   H50 
C41   H51 
C42   C43 
C42   H56 
C42   H57 
C43   H58 
C43   H59 
C43   H60 
N64   C65 
N64   C66 
N64   C67 
N64   Cu213 
C65   C71 
C65   H72 
C65   H73 
C66   C68 
C66   H69 
C66   H70 
C67   C74 
C67   H75 
C67   H76 
C68   H79 
C68   H80 
C68   N82 
C71   H77 
C71   H78 
C71   N82 
C74   H81 
C74   N82 
C74   H83 
C84   C85 
C84   C89 
C84   H101 
C85   C86 
C86   C87 
C86   O90 
C87   C88 
C87   H100 
C88   C89 
C89   O95 
O90   C91 
C91   C92 
C91   H104 
C91   H105 
C92   C93 
C92   H108 
C92   H109 
C93   C94 
C93   H110 
C93   H111 
C94   H117 
C94   H118 
C94   H119 
O95   C96 
C96   C97 
C96   H102 
C96   H103 
C97   C98 
C97   H106 
C97   H107 
C98   C99 
C98   H112 
C98   H113 
C99   H114 
C99   H115 
C99   H116 
C120   C121 
C120   C125 
C120   H137 
C121   C122 
C122   C123 
C122   O126 
C123   C124 
C123   H136 
C124   C125 
C125   O131 
O126   C127 
C127   C128 
C127   H140 
C127   H141 
C128   C129 
C128   H144 
C128   H145 
C129   C130 
C129   H146 
C129   H147 
C130   H153 
C130   H154 
C130   H155 
O131   C132 
C132   C133 
C132   H138 
C132   H139 
C133   C134 
C133   H142 
C133   H143 
C134   C135 
C134   H148 
C134   H149 
C135   H150 
C135   H151 
C135   H152 
N156   C157 
N156   C158 
N156   C159 
N156   Cu227 
C157   C163 
C157   H164 
C157   H165 
C158   C160 
C158   H161 
C158   H162 
C159   C166 
C159   H167 
C159   H168 
C160   H171 
C160   H172 
C160   N174 
C163   H169 
C163   H170 
C163   N174 
C166   H173 
C166   N174 
C166   H175 
C176   C177 
C176   C181 
C176   H193 
C177   C178 
C178   C179 
C178   O182 
C179   C180 
C179   H192 
C180   C181 
C181   O187 
O182   C183 
C183   C184 
C183   H196 
C183   H197 
C184   C185 
C184   H200 
C184   H201 
C185   C186 
C185   H202 
C185   H203 
C186   H209 
C186   H210 
C186   H211 
O187   C188 
C188   C189 
C188   H194 
C188   H195 
C189   C190 
C189   H198 
C189   H199 
C190   C191 
C190   H204 
C190   H205 
C191   H206 
C191   H207 
C191   H208 
Cu212   Cu213 
Cu212   O216 
Cu212   O219 
Cu212   O222 
Cu212   O225 
Cu212   N294 
Cu213   O214 
Cu213   O217 
Cu213   O220 
Cu213   O223 
O214   C215 
C215   O216 
C215   C244 
O217   C218 
C218   O219 
C218   C300 
O220   C221 
C221   O222 
C221   C389 
O223   C224 
C224   O225 
C224   C333 
Cu226   Cu227 
Cu226   O230 
Cu226   O233 
Cu226   O236 
Cu226   O239 
Cu226   N386 
Cu227   O228 
Cu227   O231 
Cu227   O234 
Cu227   O237 
O228   C229 
C229   O230 
C229   C336 
O231   C232 
C232   O233 
C232   C392 
O234   C235 
C235   O236 
C235   C297 
O237   C238 
C238   O239 
C238   C241 
C240   C241 
C240   C245 
C240   H257 
C241   C242 
C242   C243 
C242   O246 
C243   C244 
C243   H256 
C244   C245 
C245   O251 
O246   C247 
C247   C248 
C247   H260 
C247   H261 
C248   C249 
C248   H264 
C248   H265 
C249   C250 
C249   H266 
C249   H267 
C250   H273 
C250   H274 
C250   H275 
O251   C252 
C252   C253 
C252   H258 
C252   H259 
C253   C254 
C253   H262 
C253   H263 
C254   C255 
C254   H268 
C254   H269 
C255   H270 
C255   H271 
C255   H272 
N276   C277 
N276   C278 
N276   C279 
C277   C283 
C277   H284 
C277   H285 
C278   C280 
C278   H281 
C278   H282 
C279   C286 
C279   H287 
C279   H288 
C280   H291 
C280   H292 
C280   N294 
C283   H289 
C283   H290 
C283   N294 
C286   H293 
C286   N294 
C286   H295 
C296   C297 
C296   C301 
C296   H313 
C297   C298 
C298   C299 
C298   O302 
C299   C300 
C299   H312 
C300   C301 
C301   O307 
O302   C303 
C303   C304 
C303   H316 
C303   H317 
C304   C305 
C304   H320 
C304   H321 
C305   C306 
C305   H322 
C305   H323 
C306   H329 
C306   H330 
C306   H331 
O307   C308 
C308   C309 
C308   H314 
C308   H315 
C309   C310 
C309   H318 
C309   H319 
C310   C311 
C310   H324 
C310   H325 
C311   H326 
C311   H327 
C311   H328 
C332   C333 
C332   C337 
C332   H349 
C333   C334 
C334   C335 
C334   O338 
C335   C336 
C335   H348 
C336   C337 
C337   O343 
O338   C339 
C339   C340 
C339   H352 
C339   H353 
C340   C341 
C340   H356 
C340   H357 
C341   C342 
C341   H358 
C341   H359 
C342   H365 
C342   H366 
C342   H367 
O343   C344 
C344   C345 
C344   H350 
C344   H351 
C345   C346 
C345   H354 
C345   H355 
C346   C347 
C346   H360 
C346   H361 
C347   H362 
C347   H363 
C347   H364 
N368   C369 
N368   C370 
N368   C371 
C369   C375 
C369   H376 
C369   H377 
C370   C372 
C370   H373 
C370   H374 
C371   C378 
C371   H379 
C371   H380 
C372   H383 
C372   H384 
C372   N386 
C375   H381 
C375   H382 
C375   N386 
C378   H385 
C378   N386 
C378   H387 
C388   C389 
C388   C393 
C388   H405 
C389   C390 
C390   C391 
C390   O394 
C391   C392 
C391   H404 
C392   C393 
C393   O399 
O394   C395 
C395   C396 
C395   H408 
C395   H409 
C396   C397 
C396   H412 
C396   H413 
C397   C398 
C397   H414 
C397   H415 
C398   H421 
C398   H422 
C398   H423 
O399   C400 
C400   C401 
C400   H406 
C400   H407 
C401   C402 
C401   H410 
C401   H411 
C402   C403 
C402   H416 
C402   H417 
C403   H418 
C403   H419 
C403   H420 
  
#END  
