data_
_symmetry_cell_setting           triclinic 
_symmetry_space_group_name_H-M   'P 1' 
_symmetry_Int_Tables_number      1 
loop_ 
_symmetry_equiv_pos_site_id 
_symmetry_equiv_pos_as_xyz 
1 x,y,z 
_cell_length_a             15.239285        
_cell_length_b             15.645588        
_cell_length_c             19.017513        
_cell_angle_alpha          90.075928        
_cell_angle_beta           89.888813        
_cell_angle_gamma          90.077508        
loop_  
_atom_site_label   
_atom_site_type_symbol  
_atom_site_fract_x  
_atom_site_fract_y  
_atom_site_fract_z 
 Cu0  Cu     0.005208      0.003766      0.061021 
 Cu1  Cu     0.001196      0.009145     -0.075441 
 O2  O    -0.091490      0.095979     -0.060503 
 C3  C    -0.110297      0.127222     -0.000374 
 O4  O    -0.075596      0.104108      0.057338 
 O5  O     0.089499      0.102178     -0.064838 
 C6  C     0.126174      0.117909     -0.006070 
 O7  O     0.108352      0.080953      0.051859 
 O8  O    -0.090493     -0.081391     -0.070975 
 C9  C    -0.120748     -0.105352     -0.011729 
 O10  O    -0.095985     -0.076497      0.047821 
 O11  O     0.096718     -0.078371     -0.069292 
 C12  C     0.117538     -0.113515     -0.011266 
 O13  O     0.084460     -0.095040      0.048419 
 Cu14  Cu    -0.496449     -0.497780      0.065364 
 Cu15  Cu    -0.499688     -0.490798     -0.071135 
 O16  O     0.418784     -0.394211     -0.058465 
 C17  C     0.383789     -0.377984      0.000981 
 O18  O     0.404768     -0.413267      0.058935 
 O19  O    -0.400828     -0.408549     -0.057651 
 C20  C    -0.377302     -0.379653      0.002211 
 O21  O    -0.407811     -0.404320      0.061150 
 O22  O     0.398716      0.430033     -0.061962 
 C23  C     0.381339      0.392067     -0.004345 
 O24  O     0.418495      0.406885      0.054344 
 O25  O    -0.416594      0.410679     -0.068639 
 C26  C    -0.381242      0.388065     -0.011061 
 O27  O    -0.400464      0.418797      0.049156 
 C28  C    -0.220713      0.211203     -0.064728 
 C29  C    -0.179610      0.195704     -0.000220 
 C30  C    -0.203835      0.243014      0.059615 
 C31  C    -0.269825      0.305023      0.052911 
 C32  C    -0.310875      0.320555     -0.011563 
 C33  C    -0.286406      0.273442     -0.071434 
 O34  O    -0.163601      0.229335      0.123212 
 C35  C    -0.189851      0.282800      0.181074 
 C36  C    -0.134738      0.265647      0.245828 
 C37  C    -0.158894      0.325012      0.307228 
 C38  C    -0.092353      0.324183      0.367502 
 O39  O    -0.325989      0.288005     -0.135076 
 C40  C    -0.307702      0.229354     -0.191490 
 C41  C    -0.361512      0.252712     -0.255564 
 C42  C    -0.352211      0.188355     -0.316069 
 C43  C    -0.415304      0.205625     -0.376999 
 H44  H    -0.289991      0.342235      0.098730 
 H45  H    -0.201357      0.173699     -0.110556 
 H46  H    -0.237484      0.232029     -0.204885 
 H47  H    -0.323941      0.164004     -0.174085 
 H48  H    -0.181891      0.350276      0.165632 
 H49  H    -0.259601      0.270645      0.192965 
 H50  H    -0.430794      0.257375     -0.240213 
 H51  H    -0.341951      0.316511     -0.274288 
 H52  H    -0.144054      0.198907      0.262467 
 H53  H    -0.064816      0.273216      0.232618 
 H54  H    -0.165565      0.390683      0.287407 
 H55  H    -0.224028      0.306891      0.327545 
 H56  H    -0.284240      0.189521     -0.335816 
 H57  H    -0.363680      0.123386     -0.295926 
 H58  H    -0.401315      0.163406     -0.421754 
 H59  H    -0.483997      0.195375     -0.361584 
 H60  H    -0.409565      0.271772     -0.395650 
 H61  H    -0.115307      0.363333      0.411889 
 H62  H    -0.081375      0.259033      0.387126 
 H63  H    -0.028850      0.350279      0.350551 
 N64  N     0.019733     -0.007279      0.311293 
 C65  C    -0.004792     -0.091566      0.281923 
 C66  C    -0.042731      0.057386      0.285080 
 C67  C     0.108289      0.014054      0.284365 
 C68  C    -0.041507      0.060751      0.203236 
 H69  H    -0.109319      0.041708      0.303959 
 H70  H    -0.025328      0.120341      0.307222 
 C71  C    -0.005167     -0.088672      0.199759 
 H72  H     0.041919     -0.139901      0.301256 
 H73  H    -0.069803     -0.110206      0.302092 
 C74  C     0.108823      0.016553      0.202172 
 H75  H     0.128496      0.076387      0.305758 
 H76  H     0.155587     -0.033344      0.304284 
 H77  H     0.040415     -0.136588      0.177964 
 H78  H    -0.070751     -0.104642      0.179288 
 H79  H    -0.107767      0.048428      0.182361 
 H80  H    -0.021751      0.124897      0.185074 
 H81  H     0.156082     -0.029849      0.180376 
 N82  N     0.020478     -0.002774      0.174226 
 H83  H     0.129439      0.080159      0.183438 
 C84  C     0.184259      0.254523     -0.053652 
 C85  C     0.194361      0.187139     -0.006015 
 C86  C     0.265518      0.185569      0.040661 
 C87  C     0.324590      0.254141      0.041875 
 C88  C     0.313632      0.322307     -0.005025 
 C89  C     0.242510      0.324155     -0.051943 
 O90  O     0.276543      0.118458      0.085647 
 C91  C     0.350585      0.064252      0.071642 
 C92  C     0.336606      0.016029      0.002717 
 C93  C     0.406757     -0.051666     -0.013727 
 C94  C    -0.499069     -0.017071     -0.017953 
 O95  O     0.233952      0.395263     -0.093523 
 C96  C     0.155046      0.412918     -0.132024 
 C97  C     0.084768      0.455829     -0.086431 
 C98  C     0.044522      0.400711     -0.027573 
 C99  C    -0.027304      0.446549      0.014584 
 H100  H     0.379172      0.252808      0.078918 
 H101  H     0.129243      0.253679     -0.090289 
 H102  H     0.174397      0.456702     -0.174627 
 H103  H     0.130853      0.354599     -0.157792 
 H104  H     0.410942      0.103033      0.070180 
 H105  H     0.356501      0.019367      0.115926 
 H106  H     0.113304     -0.486152     -0.062741 
 H107  H     0.031440      0.477946     -0.120906 
 H108  H     0.271996     -0.015537      0.004502 
 H109  H     0.333194      0.061362     -0.041408 
 H110  H     0.402708     -0.102870      0.025750 
 H111  H     0.390285     -0.082138     -0.064143 
 H112  H     0.016900      0.341647     -0.049979 
 H113  H     0.096552      0.380720      0.008774 
 H114  H    -0.053041      0.405133      0.056516 
 H115  H    -0.002146     -0.494874      0.039402 
 H116  H    -0.082895      0.464299     -0.019041 
 H117  H    -0.452490     -0.068368     -0.030928 
 H118  H    -0.492790      0.032391     -0.058650 
 H119  H    -0.477985      0.011031      0.032221 
 C120  C     0.194038     -0.230298      0.051365 
 C121  C     0.186209     -0.182566     -0.010676 
 C122  C     0.241673     -0.198817     -0.068295 
 C123  C     0.304598     -0.263802     -0.062407 
 C124  C     0.313017     -0.310997     -0.000135 
 C125  C     0.257290     -0.295027      0.057350 
 O126  O     0.234134     -0.149915     -0.127965 
 C127  C     0.292339     -0.165261     -0.186165 
 C128  C     0.274367     -0.099868     -0.243521 
 C129  C     0.330682     -0.113178     -0.309802 
 C130  C     0.310362     -0.049365     -0.368680 
 O131  O     0.265795     -0.343259      0.117267 
 C132  C     0.205421     -0.330303      0.174390 
 C133  C     0.226700     -0.392827      0.233154 
 C134  C     0.167191     -0.382949      0.298035 
 C135  C     0.192083     -0.442565      0.358766 
 H136  H     0.348266     -0.276932     -0.106606 
 H137  H     0.150341     -0.217128      0.095550 
 H138  H     0.211432     -0.264001      0.193433 
 H139  H     0.137881     -0.340580      0.155477 
 H140  H     0.360953     -0.159983     -0.168487 
 H141  H     0.281341     -0.230596     -0.206002 
 H142  H     0.221443     -0.458562      0.212859 
 H143  H     0.295459     -0.384483      0.249306 
 H144  H     0.204665     -0.102589     -0.258275 
 H145  H     0.285763     -0.035109     -0.222534 
 H146  H     0.400625     -0.108474     -0.295840 
 H147  H     0.320707     -0.178550     -0.329825 
 H148  H     0.169918     -0.316326      0.316697 
 H149  H     0.098542     -0.394843      0.282870 
 H150  H     0.148941     -0.432704      0.404444 
 H151  H     0.187420      0.489850      0.343598 
 H152  H     0.259750     -0.430986      0.376221 
 H153  H     0.351114     -0.061786     -0.415337 
 H154  H     0.241393     -0.053578     -0.385216 
 H155  H     0.322880      0.016703     -0.351900 
 N156  N    -0.491467      0.491534      0.315684 
 C157  C    -0.411702      0.449470      0.287714 
 C158  C     0.431042      0.445372      0.288234 
 C159  C    -0.493928     -0.420039      0.288600 
 C160  C     0.430004      0.447522      0.206128 
 H161  H     0.432915      0.378874      0.307374 
 H162  H     0.370827      0.474445      0.309798 
 C163  C    -0.412800      0.448420      0.205504 
 H164  H    -0.353435      0.483621      0.307607 
 H165  H    -0.408108      0.383751      0.308389 
 C166  C    -0.491725     -0.419370      0.206672 
 H167  H     0.445750     -0.389148      0.307816 
 H168  H    -0.438178     -0.383405      0.309996 
 H169  H    -0.353684      0.479588      0.183888 
 H170  H    -0.412852      0.382134      0.185692 
 H171  H     0.428346      0.381982      0.184749 
 H172  H     0.370747      0.480233      0.186797 
 H173  H    -0.432666     -0.385567      0.187915 
 N174  N    -0.491662      0.492507      0.178616 
 H175  H     0.451239     -0.384805      0.185515 
 C176  C    -0.304061     -0.261650     -0.061033 
 C177  C    -0.310115     -0.309073      0.001151 
 C178  C    -0.255160     -0.290276      0.058464 
 C179  C    -0.195131     -0.222416      0.052193 
 C180  C    -0.188848     -0.175148     -0.010127 
 C181  C    -0.243847     -0.194014     -0.067467 
 O182  O    -0.260494     -0.338799      0.118549 
 C183  C    -0.196066     -0.325311      0.172573 
 C184  C    -0.213568     -0.384635      0.234386 
 C185  C    -0.149880     -0.369948      0.295937 
 C186  C    -0.170049     -0.424858      0.360724 
 O187  O    -0.238712     -0.146275     -0.128018 
 C188  C    -0.302134     -0.162382     -0.182410 
 C189  C    -0.285861     -0.104006     -0.244959 
 C190  C    -0.350299     -0.119840     -0.305771 
 C191  C    -0.331971     -0.064730     -0.370771 
 H192  H    -0.151567     -0.206675      0.095849 
 H193  H    -0.347797     -0.277527     -0.104561 
 H194  H    -0.296914     -0.229538     -0.199331 
 H195  H    -0.368503     -0.151693     -0.160958 
 H196  H    -0.130262     -0.337264      0.150476 
 H197  H    -0.199157     -0.258352      0.190310 
 H198  H    -0.290595     -0.036801     -0.227994 
 H199  H    -0.218329     -0.113596     -0.264071 
 H200  H    -0.281329     -0.375216      0.253044 
 H201  H    -0.209102     -0.451601      0.216744 
 H202  H    -0.082302     -0.382696      0.278229 
 H203  H    -0.151317     -0.302091      0.311331 
 H204  H    -0.348082     -0.187727     -0.321073 
 H205  H    -0.417764     -0.107955     -0.287379 
 H206  H    -0.378220     -0.079784     -0.413327 
 H207  H    -0.338102      0.003703     -0.359025 
 H208  H    -0.265433     -0.075480     -0.391227 
 H209  H    -0.125132     -0.409788      0.404189 
 H210  H    -0.237211     -0.414311      0.379900 
 H211  H    -0.163480     -0.493245      0.349239 
 Cu212  Cu    -0.003564      0.004673     -0.439084 
 Cu213  Cu     0.000737      0.002951      0.424296 
 O214  O    -0.100866      0.085200      0.434493 
 C215  C    -0.119126      0.121241      0.492823 
 O216  O    -0.082643      0.104519     -0.448584 
 O217  O     0.085037      0.098648      0.432193 
 C218  C     0.120333      0.116867      0.490907 
 O219  O     0.099308      0.083329     -0.450294 
 O220  O    -0.083374     -0.092346      0.430533 
 C221  C    -0.120516     -0.110848      0.488482 
 O222  O    -0.104512     -0.075622     -0.452288 
 O223  O     0.098976     -0.080378      0.439430 
 C224  C     0.113667     -0.115651      0.498779 
 O225  O     0.075984     -0.095591     -0.443793 
 Cu226  Cu     0.499639     -0.492329     -0.434290 
 Cu227  Cu    -0.498992     -0.497666      0.429169 
 O228  O     0.415875     -0.401902      0.434140 
 C229  C     0.379797     -0.380994      0.492031 
 O230  O     0.396650     -0.414613     -0.448351 
 O231  O    -0.402302     -0.412166      0.437819 
 C232  C    -0.384422     -0.376422      0.496417 
 O233  O    -0.421373     -0.392737     -0.445021 
 O234  O     0.404469      0.417200      0.444079 
 C235  C     0.386402      0.383697     -0.496472 
 O236  O     0.420104      0.406611     -0.438192 
 O237  O    -0.413312      0.408741      0.439282 
 C238  C    -0.375555      0.394643      0.497797 
 O239  O    -0.394068      0.431653     -0.444305 
 C240  C    -0.173295      0.259501     -0.460799 
 C241  C    -0.188039      0.189871      0.494379 
 C242  C    -0.263335      0.187391      0.451813 
 C243  C    -0.320490      0.257140      0.451433 
 C244  C    -0.306411      0.326309      0.496831 
 C245  C    -0.232015      0.328838     -0.459665 
 O246  O    -0.285604      0.120971      0.408767 
 C247  C    -0.295104      0.038912      0.441623 
 C248  C    -0.386230      0.003155      0.425910 
 C249  C    -0.462145      0.052360      0.460663 
 C250  C     0.446991      0.016475      0.442369 
 O251  O    -0.219546      0.400172     -0.418790 
 C252  C    -0.139302      0.410703     -0.380268 
 C253  C    -0.144706      0.361868     -0.311042 
 C254  C    -0.059158      0.363555     -0.268526 
 C255  C    -0.066128      0.313382     -0.199593 
 H256  H    -0.378085      0.254298      0.417452 
 H257  H    -0.114343      0.260318     -0.428231 
 H258  H    -0.082873      0.390776     -0.412637 
 H259  H    -0.131044      0.479586     -0.370448 
 H260  H    -0.243577     -0.002625      0.419949 
 H261  H    -0.284450      0.043065      0.498837 
 H262  H    -0.198087      0.388968     -0.278933 
 H263  H    -0.163314      0.294906     -0.320790 
 H264  H    -0.396304      0.002065      0.368586 
 H265  H    -0.388800     -0.063876      0.443472 
 H266  H    -0.453663      0.050969     -0.481903 
 H267  H    -0.459076      0.120086      0.445205 
 H268  H    -0.005623      0.336904     -0.300756 
 H269  H    -0.040880      0.430247     -0.257060 
 H270  H    -0.003800      0.313284     -0.170937 
 H271  H    -0.116230      0.340589     -0.164447 
 H272  H    -0.083621      0.246464     -0.209499 
 H273  H     0.394794      0.053284      0.468471 
 H274  H     0.434849      0.019192      0.385471 
 H275  H     0.440365     -0.050451      0.459153 
 N276  N    -0.007826      0.011380     -0.188323 
 C277  C     0.001561     -0.076313     -0.216155 
 C278  C    -0.091352      0.046513     -0.215005 
 C279  C     0.064991      0.064259     -0.216163 
 C280  C    -0.091499      0.048370     -0.297201 
 H281  H    -0.145902      0.007396     -0.194599 
 H282  H    -0.100637      0.111223     -0.193577 
 C283  C     0.000111     -0.076033     -0.298148 
 H284  H     0.063541     -0.103371     -0.196621 
 H285  H    -0.051727     -0.116846     -0.195379 
 C286  C     0.064976      0.063606     -0.298245 
 H287  H     0.057813      0.130156     -0.196277 
 H288  H     0.127848      0.039815     -0.195743 
 H289  H     0.061297     -0.103773     -0.318808 
 H290  H    -0.054338     -0.115637     -0.318170 
 H291  H    -0.147613      0.012254     -0.318582 
 H292  H    -0.098276      0.114595     -0.316210 
 H293  H     0.127086      0.036993     -0.318471 
 N294  N    -0.009015      0.011930     -0.325341 
 H295  H     0.059686      0.129232     -0.318950 
 C296  C     0.283660      0.290849      0.437371 
 C297  C     0.319735      0.312261     -0.497113 
 C298  C     0.293002      0.267598     -0.436305 
 C299  C     0.228404      0.203746     -0.442292 
 C300  C     0.191717      0.183488      0.492415 
 C301  C     0.219825      0.226820      0.431832 
 O302  O     0.329271      0.286357     -0.372057 
 C303  C     0.311609      0.229360     -0.314389 
 C304  C     0.369519      0.252967     -0.252521 
 C305  C     0.362940      0.190291     -0.190555 
 C306  C     0.430168      0.208529     -0.132521 
 O307  O     0.189117      0.205508      0.366745 
 C308  C     0.140737      0.270331      0.330437 
 C309  C     0.182805      0.287666      0.259194 
 C310  C     0.135338      0.357764      0.217511 
 C311  C     0.177136      0.375893      0.145779 
 H312  H     0.205622      0.169700     -0.395609 
 H313  H     0.304422      0.323090      0.389324 
 H314  H     0.073417      0.246041      0.323976 
 H315  H     0.136890      0.329145      0.362286 
 H316  H     0.241895      0.234107     -0.299362 
 H317  H     0.325458      0.163282     -0.331084 
 H318  H     0.251912      0.306338      0.266543 
 H319  H     0.183813      0.228350      0.227886 
 H320  H     0.437859      0.256622     -0.270729 
 H321  H     0.352089      0.317306     -0.233935 
 H322  H     0.296289      0.193205     -0.168193 
 H323  H     0.371775      0.124356     -0.209604 
 H324  H     0.066361      0.339207      0.209717 
 H325  H     0.133918      0.416995      0.248694 
 H326  H     0.143620      0.428697      0.118928 
 H327  H     0.246669      0.393530      0.150603 
 H328  H     0.173213      0.319441      0.111521 
 H329  H     0.419327      0.167455     -0.086556 
 H330  H     0.497562      0.197338     -0.150739 
 H331  H     0.426418      0.275152     -0.114527 
 C332  C     0.254389     -0.308761     -0.450673 
 C333  C     0.311238     -0.311762      0.491542 
 C334  C     0.303704     -0.251575      0.436991 
 C335  C     0.238706     -0.188392      0.441775 
 C336  C     0.181838     -0.185250      0.499639 
 C337  C     0.189449     -0.245425     -0.445619 
 O338  O     0.359828     -0.255857      0.380633 
 C339  C     0.356446     -0.191061      0.327197 
 C340  C     0.418359     -0.217927      0.268582 
 C341  C     0.428607     -0.152837      0.208900 
 C342  C     0.484295     -0.187826      0.148052 
 O343  O     0.133864     -0.241975     -0.388678 
 C344  C     0.141900     -0.305561     -0.334366 
 C345  C     0.084524     -0.280221     -0.272324 
 C346  C     0.088731     -0.342083     -0.209735 
 C347  C     0.040752     -0.307933     -0.144479 
 H348  H     0.232702     -0.140531      0.400359 
 H349  H     0.260685     -0.357205     -0.409711 
 H350  H     0.122019     -0.368205     -0.355679 
 H351  H     0.210680     -0.309536     -0.316970 
 H352  H     0.289209     -0.185331      0.306575 
 H353  H     0.376130     -0.129211      0.350037 
 H354  H     0.106173     -0.217013     -0.254084 
 H355  H     0.015906     -0.273126     -0.289502 
 H356  H     0.483489     -0.231885      0.290844 
 H357  H     0.393738     -0.277953      0.245951 
 H358  H     0.363489     -0.134582      0.188909 
 H359  H     0.458600     -0.094016      0.229778 
 H360  H     0.060641     -0.404189     -0.225172 
 H361  H     0.157787     -0.354320     -0.196082 
 H362  H     0.043897     -0.353372     -0.100568 
 H363  H     0.069884     -0.247631     -0.126141 
 H364  H    -0.028767     -0.295226     -0.155179 
 H365  H     0.497962     -0.138271      0.108698 
 H366  H    -0.452282     -0.212173      0.166603 
 H367  H     0.450964     -0.240948      0.121122 
 N368  N     0.485796     -0.480191     -0.184212 
 C369  C    -0.455246      0.453291     -0.212787 
 C370  C     0.396215     -0.495892     -0.211152 
 C371  C    -0.485284     -0.396096     -0.211214 
 C372  C     0.395954     -0.497225     -0.293402 
 H373  H     0.371663      0.443156     -0.189964 
 H374  H     0.352212     -0.445654     -0.190799 
 C375  C    -0.454446      0.455141     -0.294645 
 H376  H    -0.388268      0.463281     -0.192445 
 H377  H    -0.477665      0.390365     -0.193796 
 C378  C    -0.487764     -0.394840     -0.293470 
 H379  H     0.472162     -0.345765     -0.189151 
 H380  H    -0.418559     -0.382992     -0.191834 
 H381  H    -0.387618      0.468889     -0.313968 
 H382  H    -0.473566      0.392237     -0.315972 
 H383  H     0.374121      0.439994     -0.312999 
 H384  H     0.349504     -0.449715     -0.314363 
 H385  H    -0.422932     -0.378168     -0.315078 
 N386  N     0.484767     -0.479056     -0.321386 
 H387  H     0.466193     -0.345813     -0.312660 
 C388  C    -0.304474     -0.261865      0.432917 
 C389  C    -0.314680     -0.308662      0.495174 
 C390  C    -0.260910     -0.292930     -0.446190 
 C391  C    -0.197745     -0.227913     -0.450158 
 C392  C    -0.188100     -0.180624      0.487978 
 C393  C    -0.240780     -0.197276      0.428839 
 O394  O    -0.271260     -0.341941     -0.386998 
 C395  C    -0.206798     -0.336955     -0.332201 
 C396  C    -0.234299     -0.397761     -0.273873 
 C397  C    -0.170318     -0.399976     -0.211737 
 C398  C    -0.199442     -0.460238     -0.152613 
 O399  O    -0.228290     -0.149081      0.369452 
 C400  C    -0.290137     -0.152490      0.312618 
 C401  C    -0.262969     -0.083732      0.260179 
 C402  C    -0.322615     -0.076919      0.195527 
 C403  C    -0.294030     -0.006969      0.143855 
 H404  H    -0.155426     -0.213887     -0.405300 
 H405  H    -0.346339     -0.275577      0.387758 
 H406  H    -0.288776     -0.216304      0.288215 
 H407  H    -0.357031     -0.141097      0.332541 
 H408  H    -0.142064     -0.354459     -0.353764 
 H409  H    -0.203067     -0.271149     -0.311793 
 H410  H    -0.260742     -0.021247      0.286929 
 H411  H    -0.195768     -0.096698      0.242139 
 H412  H    -0.299017     -0.378257     -0.254171 
 H413  H    -0.242616     -0.462629     -0.295370 
 H414  H    -0.104884     -0.419056     -0.230605 
 H415  H    -0.163323     -0.334936     -0.190279 
 H416  H    -0.323661     -0.138768      0.167861 
 H417  H    -0.390283     -0.064331      0.212900 
 H418  H    -0.338419     -0.003902      0.098476 
 H419  H    -0.293570      0.056437      0.168837 
 H420  H    -0.227793     -0.019025      0.123204 
 H421  H    -0.152379     -0.459250     -0.108945 
 H422  H    -0.263556     -0.441548     -0.131079 
 H423  H    -0.205205      0.473386     -0.170944 
loop_  
_geom_bond_atom_site_label_1  
_geom_bond_atom_site_label_2  
Cu0   Cu1 
Cu0   O4 
Cu0   O7 
Cu0   O10 
Cu0   O13 
Cu0   N82 
Cu1   O2 
Cu1   O5 
Cu1   O8 
Cu1   O11 
Cu1   N276 
O2   C3 
C3   O4 
C3   C29 
O5   C6 
C6   O7 
C6   C85 
O8   C9 
C9   O10 
C9   C180 
O11   C12 
C12   O13 
C12   C121 
Cu14   Cu15 
Cu14   O18 
Cu14   O21 
Cu14   O24 
Cu14   O27 
Cu14   N174 
Cu15   O16 
Cu15   O19 
Cu15   O22 
Cu15   O25 
Cu15   N368 
O16   C17 
C17   O18 
C17   C124 
O19   C20 
C20   O21 
C20   C177 
O22   C23 
C23   O24 
C23   C88 
O25   C26 
C26   O27 
C26   C32 
C28   C29 
C28   C33 
C28   H45 
C29   C30 
C30   C31 
C30   O34 
C31   C32 
C31   H44 
C32   C33 
C33   O39 
O34   C35 
C35   C36 
C35   H48 
C35   H49 
C36   C37 
C36   H52 
C36   H53 
C37   C38 
C37   H54 
C37   H55 
C38   H61 
C38   H62 
C38   H63 
O39   C40 
C40   C41 
C40   H46 
C40   H47 
C41   C42 
C41   H50 
C41   H51 
C42   C43 
C42   H56 
C42   H57 
C43   H58 
C43   H59 
C43   H60 
N64   C65 
N64   C66 
N64   C67 
N64   Cu213 
C65   C71 
C65   H72 
C65   H73 
C66   C68 
C66   H69 
C66   H70 
C67   C74 
C67   H75 
C67   H76 
C68   H79 
C68   H80 
C68   N82 
C71   H77 
C71   H78 
C71   N82 
C74   H81 
C74   N82 
C74   H83 
C84   C85 
C84   C89 
C84   H101 
C85   C86 
C86   C87 
C86   O90 
C87   C88 
C87   H100 
C88   C89 
C89   O95 
O90   C91 
C91   C92 
C91   H104 
C91   H105 
C92   C93 
C92   H108 
C92   H109 
C93   C94 
C93   H110 
C93   H111 
C94   H117 
C94   H118 
C94   H119 
O95   C96 
C96   C97 
C96   H102 
C96   H103 
C97   C98 
C97   H106 
C97   H107 
C98   C99 
C98   H112 
C98   H113 
C99   H114 
C99   H115 
C99   H116 
C120   C121 
C120   C125 
C120   H137 
C121   C122 
C122   C123 
C122   O126 
C123   C124 
C123   H136 
C124   C125 
C125   O131 
O126   C127 
C127   C128 
C127   H140 
C127   H141 
C128   C129 
C128   H144 
C128   H145 
C129   C130 
C129   H146 
C129   H147 
C130   H153 
C130   H154 
C130   H155 
O131   C132 
C132   C133 
C132   H138 
C132   H139 
C133   C134 
C133   H142 
C133   H143 
C134   C135 
C134   H148 
C134   H149 
C135   H150 
C135   H151 
C135   H152 
N156   C157 
N156   C158 
N156   C159 
N156   Cu227 
C157   C163 
C157   H164 
C157   H165 
C158   C160 
C158   H161 
C158   H162 
C159   C166 
C159   H167 
C159   H168 
C160   H171 
C160   H172 
C160   N174 
C163   H169 
C163   H170 
C163   N174 
C166   H173 
C166   N174 
C166   H175 
C176   C177 
C176   C181 
C176   H193 
C177   C178 
C178   C179 
C178   O182 
C179   C180 
C179   H192 
C180   C181 
C181   O187 
O182   C183 
C183   C184 
C183   H196 
C183   H197 
C184   C185 
C184   H200 
C184   H201 
C185   C186 
C185   H202 
C185   H203 
C186   H209 
C186   H210 
C186   H211 
O187   C188 
C188   C189 
C188   H194 
C188   H195 
C189   C190 
C189   H198 
C189   H199 
C190   C191 
C190   H204 
C190   H205 
C191   H206 
C191   H207 
C191   H208 
Cu212   Cu213 
Cu212   O216 
Cu212   O219 
Cu212   O222 
Cu212   O225 
Cu212   N294 
Cu213   O214 
Cu213   O217 
Cu213   O220 
Cu213   O223 
O214   C215 
C215   O216 
C215   C241 
O217   C218 
C218   O219 
C218   C300 
O220   C221 
C221   O222 
C221   C392 
O223   C224 
C224   O225 
C224   C336 
Cu226   Cu227 
Cu226   O230 
Cu226   O233 
Cu226   O236 
Cu226   O239 
Cu226   N386 
Cu227   O228 
Cu227   O231 
Cu227   O234 
Cu227   O237 
O228   C229 
C229   O230 
C229   C333 
O231   C232 
C232   O233 
C232   C389 
O234   C235 
C235   O236 
C235   C297 
O237   C238 
C238   O239 
C238   C244 
C240   C241 
C240   C245 
C240   H257 
C241   C242 
C242   C243 
C242   O246 
C243   C244 
C243   H256 
C244   C245 
C245   O251 
O246   C247 
C247   C248 
C247   H260 
C247   H261 
C248   C249 
C248   H264 
C248   H265 
C249   C250 
C249   H266 
C249   H267 
C250   H273 
C250   H274 
C250   H275 
O251   C252 
C252   C253 
C252   H258 
C252   H259 
C253   C254 
C253   H262 
C253   H263 
C254   C255 
C254   H268 
C254   H269 
C255   H270 
C255   H271 
C255   H272 
N276   C277 
N276   C278 
N276   C279 
C277   C283 
C277   H284 
C277   H285 
C278   C280 
C278   H281 
C278   H282 
C279   C286 
C279   H287 
C279   H288 
C280   H291 
C280   H292 
C280   N294 
C283   H289 
C283   H290 
C283   N294 
C286   H293 
C286   N294 
C286   H295 
C296   C297 
C296   C301 
C296   H313 
C297   C298 
C298   C299 
C298   O302 
C299   C300 
C299   H312 
C300   C301 
C301   O307 
O302   C303 
C303   C304 
C303   H316 
C303   H317 
C304   C305 
C304   H320 
C304   H321 
C305   C306 
C305   H322 
C305   H323 
C306   H329 
C306   H330 
C306   H331 
O307   C308 
C308   C309 
C308   H314 
C308   H315 
C309   C310 
C309   H318 
C309   H319 
C310   C311 
C310   H324 
C310   H325 
C311   H326 
C311   H327 
C311   H328 
C332   C333 
C332   C337 
C332   H349 
C333   C334 
C334   C335 
C334   O338 
C335   C336 
C335   H348 
C336   C337 
C337   O343 
O338   C339 
C339   C340 
C339   H352 
C339   H353 
C340   C341 
C340   H356 
C340   H357 
C341   C342 
C341   H358 
C341   H359 
C342   H365 
C342   H366 
C342   H367 
O343   C344 
C344   C345 
C344   H350 
C344   H351 
C345   C346 
C345   H354 
C345   H355 
C346   C347 
C346   H360 
C346   H361 
C347   H362 
C347   H363 
C347   H364 
N368   C369 
N368   C370 
N368   C371 
C369   C375 
C369   H376 
C369   H377 
C370   C372 
C370   H373 
C370   H374 
C371   C378 
C371   H379 
C371   H380 
C372   H383 
C372   H384 
C372   N386 
C375   H381 
C375   H382 
C375   N386 
C378   H385 
C378   N386 
C378   H387 
C388   C389 
C388   C393 
C388   H405 
C389   C390 
C390   C391 
C390   O394 
C391   C392 
C391   H404 
C392   C393 
C393   O399 
O394   C395 
C395   C396 
C395   H408 
C395   H409 
C396   C397 
C396   H412 
C396   H413 
C397   C398 
C397   H414 
C397   H415 
C398   H421 
C398   H422 
C398   H423 
O399   C400 
C400   C401 
C400   H406 
C400   H407 
C401   C402 
C401   H410 
C401   H411 
C402   C403 
C402   H416 
C402   H417 
C403   H418 
C403   H419 
C403   H420 
  
#END  
