data_
_symmetry_cell_setting           triclinic 
_symmetry_space_group_name_H-M   'P 1' 
_symmetry_Int_Tables_number      1 
loop_ 
_symmetry_equiv_pos_site_id 
_symmetry_equiv_pos_as_xyz 
1 x,y,z 
_cell_length_a             15.195609        
_cell_length_b             15.670838        
_cell_length_c             19.153596        
_cell_angle_alpha          87.793433        
_cell_angle_beta           88.530129        
_cell_angle_gamma          90.122322        
loop_  
_atom_site_label   
_atom_site_type_symbol  
_atom_site_fract_x  
_atom_site_fract_y  
_atom_site_fract_z 
 Cu0  Cu     0.004991     -0.000013      0.079915 
 Cu1  Cu     0.008462      0.007878     -0.056255 
 O2  O    -0.092782      0.087898     -0.044809 
 C3  C    -0.114087      0.119043      0.013911 
 O4  O    -0.084783      0.092785      0.072473 
 O5  O     0.090419      0.107302     -0.048606 
 C6  C     0.121807      0.124149      0.010502 
 O7  O     0.100746      0.086937      0.068794 
 O8  O    -0.074288     -0.090974     -0.043005 
 C9  C    -0.107568     -0.117836      0.015749 
 O10  O    -0.087362     -0.090281      0.074832 
 O11  O     0.108676     -0.074121     -0.045713 
 C12  C     0.128225     -0.109649      0.013049 
 O13  O     0.095259     -0.090218      0.071982 
 Cu14  Cu    -0.493499     -0.497059      0.066675 
 Cu15  Cu    -0.495282     -0.494413     -0.069388 
 O16  O     0.410291     -0.408768     -0.062974 
 C17  C     0.379706     -0.387458     -0.003823 
 O18  O     0.399581     -0.423081      0.054801 
 O19  O    -0.407191     -0.397941     -0.067704 
 C20  C    -0.387268     -0.367707     -0.009428 
 O21  O    -0.420495     -0.392480      0.049837 
 O22  O     0.414508      0.412553     -0.049950 
 C23  C     0.397775      0.377949      0.010335 
 O24  O     0.433264      0.397886      0.067012 
 O25  O    -0.399273      0.419873     -0.063195 
 C26  C    -0.364586      0.399440     -0.005218 
 O27  O    -0.385917      0.431191      0.053318 
 C28  C    -0.269697      0.301558      0.062748 
 C29  C    -0.295161      0.330698     -0.003517 
 C30  C    -0.258551      0.293473     -0.063269 
 C31  C    -0.199772      0.225002     -0.054807 
 C32  C    -0.177004      0.193520      0.011710 
 C33  C    -0.213119      0.231370      0.071493 
 O34  O    -0.281127      0.322626     -0.128757 
 C35  C    -0.222387      0.304341     -0.186240 
 C36  C    -0.252822      0.352650     -0.251381 
 C37  C    -0.183232      0.358019     -0.310921 
 C38  C    -0.213695      0.408334     -0.375882 
 O39  O    -0.195104      0.200719      0.137717 
 C40  C    -0.250141      0.231099      0.193771 
 C41  C    -0.241580      0.175301      0.259560 
 C42  C    -0.310863      0.195787      0.316157 
 C43  C    -0.323612      0.124153      0.372245 
 H44  H    -0.172007      0.195065     -0.100865 
 H45  H    -0.296552      0.333303      0.108348 
 H46  H    -0.231439      0.297395      0.203945 
 H47  H    -0.319329      0.229925      0.177807 
 H48  H    -0.155272      0.323805     -0.173127 
 H49  H    -0.222477      0.235316     -0.195179 
 H50  H    -0.248153      0.108140      0.246062 
 H51  H    -0.175419      0.182926      0.280609 
 H52  H    -0.312247      0.321149     -0.269890 
 H53  H    -0.272226      0.417564     -0.237693 
 H54  H    -0.123268      0.388198     -0.292271 
 H55  H    -0.165162      0.292959     -0.325601 
 H56  H    -0.292026      0.255190      0.340798 
 H57  H    -0.374269      0.209001      0.291627 
 H58  H    -0.370818      0.143149      0.413120 
 H59  H    -0.349460      0.065940      0.349986 
 H60  H    -0.261301      0.107636      0.397269 
 H61  H    -0.163815      0.407404     -0.418385 
 H62  H    -0.274490      0.380714     -0.394763 
 H63  H    -0.227629      0.475384     -0.365538 
 N64  N     0.011984     -0.002946      0.327069 
 C65  C     0.103006      0.003414      0.298167 
 C66  C    -0.027563     -0.082409      0.302576 
 C67  C    -0.039149      0.069870      0.298851 
 C68  C    -0.029232     -0.080859      0.221111 
 H69  H     0.010294     -0.137238      0.323107 
 H70  H    -0.094865     -0.089633      0.324611 
 C71  C     0.103700      0.001436      0.216762 
 H72  H     0.133164      0.062899      0.315019 
 H73  H     0.142115     -0.049510      0.320552 
 C74  C    -0.036967      0.071399      0.217478 
 H75  H    -0.107529      0.063708      0.319151 
 H76  H    -0.012655      0.129951      0.317967 
 H77  H     0.137568      0.058019      0.193056 
 H78  H     0.140284     -0.054511      0.198581 
 H79  H     0.004393     -0.136779      0.199928 
 H80  H    -0.097529     -0.083157      0.203459 
 H81  H    -0.006632      0.130937      0.195761 
 N82  N     0.012752     -0.002254      0.191302 
 H83  H    -0.104590      0.069077      0.198215 
 C84  C     0.274006      0.166952      0.038008 
 C85  C     0.192027      0.191181      0.012438 
 C86  C     0.175969      0.275499     -0.010540 
 C87  C     0.244220      0.335779     -0.010128 
 C88  C     0.326730      0.311386      0.014507 
 C89  C     0.342442      0.227364      0.039556 
 O90  O     0.091687      0.298070     -0.026132 
 C91  C     0.077226      0.349599     -0.088071 
 C92  C     0.061452      0.288554     -0.146070 
 C93  C     0.041821      0.333431     -0.216376 
 C94  C     0.014313      0.270250     -0.270725 
 O95  O     0.424222      0.207256      0.064337 
 C96  C     0.453631      0.120068      0.062185 
 C97  C     0.424942      0.066624      0.127290 
 C98  C     0.418375     -0.029325      0.113456 
 C99  C     0.386584     -0.084455      0.177037 
 H100  H     0.232485      0.402094     -0.026967 
 H101  H     0.283751      0.100742      0.056056 
 H102  H     0.429763      0.091775      0.014428 
 H103  H    -0.473977      0.121761      0.057131 
 H104  H     0.018998      0.389561     -0.078181 
 H105  H     0.132908      0.392721     -0.101455 
 H106  H     0.472331      0.076459      0.168825 
 H107  H     0.361127      0.088702      0.148216 
 H108  H     0.119176      0.246882     -0.152342 
 H109  H     0.006052      0.246080     -0.129932 
 H110  H    -0.010599      0.380839     -0.208875 
 H111  H     0.100361      0.369476     -0.235789 
 H112  H     0.373021     -0.038525      0.070382 
 H113  H     0.482906     -0.052506      0.094978 
 H114  H     0.382331     -0.151998      0.163928 
 H115  H     0.431709     -0.080082      0.220620 
 H116  H     0.320805     -0.064843      0.195373 
 H117  H    -0.002488      0.302972     -0.320156 
 H118  H     0.067340      0.225091     -0.282037 
 H119  H    -0.044008      0.233734     -0.252307 
 C120  C     0.276100     -0.298620      0.063171 
 C121  C     0.316252     -0.313855     -0.001599 
 C122  C     0.297151     -0.261320     -0.060497 
 C123  C     0.236054     -0.194936     -0.053453 
 C124  C     0.195010     -0.180448      0.011205 
 C125  C     0.215329     -0.232028      0.070343 
 O126  O     0.338063     -0.275452     -0.123600 
 C127  C     0.327991     -0.213204     -0.179757 
 C128  C     0.385336     -0.239236     -0.241234 
 C129  C     0.384273     -0.175091     -0.303747 
 C130  C     0.441185     -0.204061     -0.365495 
 O131  O     0.175497     -0.217571      0.133802 
 C132  C     0.193049     -0.275941      0.191281 
 C133  C     0.137768     -0.251131      0.254168 
 C134  C     0.148687     -0.312035      0.317781 
 C135  C     0.090583     -0.288035      0.380428 
 H136  H     0.219756     -0.154231     -0.098795 
 H137  H     0.292270     -0.339713      0.108320 
 H138  H     0.176300     -0.341366      0.176914 
 H139  H     0.263541     -0.273298      0.203256 
 H140  H     0.258477     -0.210575     -0.194730 
 H141  H     0.347910     -0.149880     -0.162417 
 H142  H     0.155068     -0.185879      0.268258 
 H143  H     0.068031     -0.250365      0.240055 
 H144  H     0.453495     -0.247351     -0.224073 
 H145  H     0.363427     -0.301948     -0.258178 
 H146  H     0.316097     -0.165854     -0.320637 
 H147  H     0.407444     -0.112491     -0.287425 
 H148  H     0.132626     -0.377251      0.302926 
 H149  H     0.218149     -0.312843      0.332874 
 H150  H     0.099719     -0.331852      0.425825 
 H151  H     0.106107     -0.223470      0.396447 
 H152  H     0.020649     -0.288469      0.367702 
 H153  H     0.439665     -0.158028     -0.410152 
 H154  H    -0.490020     -0.213157     -0.350938 
 H155  H     0.417978     -0.265464     -0.383491 
 N156  N    -0.499964     -0.498785      0.319884 
 C157  C    -0.488084      0.413221      0.295567 
 C158  C     0.416520     -0.465193      0.291822 
 C159  C    -0.426873     -0.445730      0.289468 
 C160  C     0.418410     -0.464971      0.209998 
 H161  H     0.361581      0.495285      0.313769 
 H162  H     0.405760     -0.400024      0.310035 
 C163  C    -0.488367      0.411979      0.213858 
 H164  H    -0.425514      0.387557      0.315211 
 H165  H     0.459195      0.371981      0.318878 
 C166  C    -0.424892     -0.447666      0.207710 
 H167  H    -0.434885     -0.379713      0.306585 
 H168  H    -0.364304     -0.469412      0.310702 
 H169  H    -0.427166      0.383579      0.193178 
 H170  H     0.456999      0.372038      0.196728 
 H171  H     0.363022      0.497559      0.190887 
 H172  H     0.411099     -0.399297      0.188157 
 H173  H    -0.361828     -0.473509      0.188169 
 N174  N    -0.497814      0.499417      0.182859 
 H175  H    -0.430477     -0.382360      0.184694 
 C176  C    -0.220383     -0.187607     -0.051818 
 C177  C    -0.178343     -0.184837      0.012180 
 C178  C    -0.204264     -0.241188      0.067901 
 C179  C    -0.273722     -0.298265      0.057204 
 C180  C    -0.316092     -0.300900     -0.006737 
 C181  C    -0.290365     -0.244251     -0.062400 
 O182  O    -0.162330     -0.242059      0.130974 
 C183  C    -0.194849     -0.302368      0.184322 
 C184  C    -0.144436     -0.302850      0.251916 
 C185  C    -0.188148     -0.362748      0.308398 
 C186  C    -0.140862     -0.367484      0.378062 
 O187  O    -0.332633     -0.242104     -0.125380 
 C188  C    -0.302282     -0.177905     -0.176488 
 C189  C    -0.352744     -0.172665     -0.243994 
 C190  C    -0.311094     -0.105927     -0.296244 
 C191  C    -0.358436     -0.094894     -0.365602 
 H192  H    -0.294994     -0.343372      0.099156 
 H193  H    -0.198586     -0.142482     -0.093607 
 H194  H    -0.306766     -0.115238     -0.152368 
 H195  H    -0.232663     -0.191334     -0.189211 
 H196  H    -0.264367     -0.286894      0.195694 
 H197  H    -0.191298     -0.366872      0.163398 
 H198  H    -0.354432     -0.235551     -0.267721 
 H199  H    -0.421633     -0.155351     -0.232396 
 H200  H    -0.076096     -0.323172      0.241762 
 H201  H    -0.140671     -0.237865      0.271475 
 H202  H    -0.256307     -0.341783      0.318084 
 H203  H    -0.192893     -0.427500      0.288383 
 H204  H    -0.308635     -0.043692     -0.271524 
 H205  H    -0.242177     -0.123439     -0.307392 
 H206  H    -0.324313     -0.047840     -0.400785 
 H207  H    -0.360954     -0.155120     -0.393005 
 H208  H    -0.426190     -0.072661     -0.357331 
 H209  H    -0.177260     -0.408184      0.416986 
 H210  H    -0.074743     -0.394434      0.371894 
 H211  H    -0.134177     -0.304014      0.399843 
 Cu212  Cu    -0.006169      0.004824     -0.425349 
 Cu213  Cu     0.000607      0.010129      0.438413 
 O214  O    -0.077882      0.111613      0.446693 
 C215  C    -0.116139      0.129144     -0.495796 
 O216  O    -0.102731      0.091365     -0.436759 
 O217  O     0.101192      0.087276      0.441335 
 C218  C     0.118276      0.120446      0.498831 
 O219  O     0.083302      0.098565     -0.441703 
 O220  O    -0.102902     -0.066996      0.446819 
 C221  C    -0.125686     -0.104456     -0.495554 
 O222  O    -0.093786     -0.088983     -0.436214 
 O223  O     0.084519     -0.086752      0.451964 
 C224  C     0.116840     -0.108156     -0.489235 
 O225  O     0.090993     -0.080684     -0.430306 
 Cu226  Cu     0.494817      0.498875     -0.428761 
 Cu227  Cu     0.498839     -0.487942      0.435135 
 O228  O     0.402255     -0.401842      0.447007 
 C229  C     0.380191     -0.375777     -0.492693 
 O230  O     0.412183     -0.402946     -0.435240 
 O231  O    -0.413098     -0.394765      0.449282 
 C232  C    -0.380985     -0.381304     -0.491098 
 O233  O    -0.401208     -0.423264     -0.434905 
 O234  O     0.410777      0.416448      0.446841 
 C235  C     0.377579      0.390521     -0.494053 
 O236  O     0.393601      0.422163     -0.435635 
 O237  O    -0.404460      0.425924      0.439831 
 C238  C    -0.390944      0.384026      0.496980 
 O239  O    -0.428323      0.397875     -0.444339 
 C240  C    -0.243836      0.332552      0.458445 
 C241  C    -0.322943      0.314766      0.495146 
 C242  C    -0.335383      0.236962     -0.467032 
 C243  C    -0.264695      0.179768     -0.461118 
 C244  C    -0.185413      0.197392     -0.497773 
 C245  C    -0.173778      0.274279      0.462562 
 O246  O    -0.416897      0.219394     -0.437628 
 C247  C    -0.441226      0.131284     -0.426131 
 C248  C     0.459163      0.123348     -0.429444 
 C249  C     0.426643      0.030480     -0.421119 
 C250  C     0.327016      0.019791     -0.428418 
 O251  O    -0.094428      0.290629      0.428814 
 C252  C    -0.071611      0.378375      0.412575 
 C253  C     0.025671      0.384524      0.392022 
 C254  C     0.063507      0.475248      0.396923 
 C255  C     0.164178      0.480617      0.389452 
 H256  H    -0.272425      0.120125     -0.430104 
 H257  H    -0.236222      0.393155      0.428723 
 H258  H    -0.111920      0.403240      0.369367 
 H259  H    -0.086039      0.416122      0.458877 
 H260  H    -0.409783      0.092051     -0.466226 
 H261  H    -0.417734      0.109098     -0.374612 
 H262  H     0.062917      0.339671      0.425543 
 H263  H     0.035161      0.363050      0.338363 
 H264  H     0.428392      0.161567     -0.388527 
 H265  H     0.437165      0.151319     -0.479712 
 H266  H     0.460973     -0.008038     -0.460195 
 H267  H     0.445626      0.004139     -0.369626 
 H268  H     0.034100     -0.483037      0.356401 
 H269  H     0.042963     -0.498782      0.447355 
 H270  H     0.188370     -0.455053      0.399567 
 H271  H     0.195968      0.437007      0.427203 
 H272  H     0.187362      0.465142      0.336697 
 H273  H     0.307678     -0.047832     -0.423771 
 H274  H     0.289947      0.053179     -0.387873 
 H275  H     0.305307      0.044862     -0.479464 
 N276  N     0.005325     -0.004271     -0.172063 
 C277  C    -0.002694     -0.092810     -0.195870 
 C278  C    -0.070671      0.044827     -0.198828 
 C279  C     0.086657      0.033245     -0.204586 
 C280  C    -0.072794      0.044253     -0.280581 
 H281  H    -0.131778      0.017041     -0.175246 
 H282  H    -0.066565      0.110779     -0.181138 
 C283  C    -0.006653     -0.094043     -0.277614 
 H284  H     0.053687     -0.130329     -0.176659 
 H285  H    -0.062294     -0.122608     -0.171573 
 C286  C     0.084712      0.030293     -0.286224 
 H287  H     0.093112      0.099652     -0.188375 
 H288  H     0.144097     -0.001637     -0.184145 
 H289  H     0.046716     -0.133588     -0.299118 
 H290  H    -0.068970     -0.122636     -0.293711 
 H291  H    -0.135520      0.017412     -0.297642 
 H292  H    -0.068485      0.109762     -0.303474 
 H293  H     0.139716     -0.008319     -0.306361 
 N294  N     0.000837     -0.006518     -0.309141 
 H295  H     0.093220      0.094775     -0.310281 
 C296  C     0.286125      0.292067      0.440381 
 C297  C     0.314382      0.316763     -0.494350 
 C298  C     0.281239      0.275823     -0.432438 
 C299  C     0.215090      0.214148     -0.437248 
 C300  C     0.185884      0.190366      0.497752 
 C301  C     0.220250      0.229886      0.435710 
 O302  O     0.313046      0.295377     -0.368437 
 C303  C     0.288504      0.240697     -0.308971 
 C304  C     0.353278      0.251046     -0.250940 
 C305  C     0.337995      0.186860     -0.189192 
 C306  C     0.409679      0.190295     -0.134619 
 O307  O     0.188983      0.207589      0.372233 
 C308  C     0.204743      0.264452      0.312476 
 C309  C     0.137646      0.247153      0.257217 
 C310  C     0.136130      0.315879      0.197819 
 C311  C     0.058851      0.305431      0.148885 
 H312  H     0.185637      0.184029     -0.389897 
 H313  H     0.314055      0.322836      0.392739 
 H314  H     0.198625      0.330742      0.328459 
 H315  H     0.272124      0.255285      0.291705 
 H316  H     0.221427      0.257409     -0.291252 
 H317  H     0.288768      0.173494     -0.323667 
 H318  H     0.151245      0.184839      0.234859 
 H319  H     0.071715      0.242347      0.282258 
 H320  H     0.420574      0.242667     -0.272287 
 H321  H     0.349245      0.316378     -0.232103 
 H322  H     0.273470      0.198808     -0.163950 
 H323  H     0.334798      0.121758     -0.208703 
 H324  H     0.132629      0.379559      0.220086 
 H325  H     0.198543      0.314187      0.167312 
 H326  H     0.059531      0.355788      0.107328 
 H327  H     0.061443      0.243715      0.123541 
 H328  H    -0.004796      0.308817      0.177218 
 H329  H     0.396686      0.142893     -0.091911 
 H330  H     0.475084      0.176833     -0.157387 
 H331  H     0.412650      0.253357     -0.111597 
 C332  C     0.313508     -0.243534      0.455728 
 C333  C     0.312592     -0.305770     -0.489803 
 C334  C     0.251056     -0.300827     -0.433933 
 C335  C     0.190599     -0.233324     -0.432950 
 C336  C     0.190035     -0.172579     -0.488355 
 C337  C     0.254457     -0.174805      0.457814 
 O338  O     0.251839     -0.359253     -0.379096 
 C339  C     0.170217     -0.401313     -0.360047 
 C340  C     0.166902     -0.485073     -0.397321 
 C341  C     0.075200      0.473481     -0.394511 
 C342  C     0.075814      0.384369     -0.424437 
 O343  O     0.258202     -0.109905      0.408024 
 C344  C     0.344596     -0.080652      0.386505 
 C345  C     0.338408      0.011434      0.358996 
 C346  C     0.428816      0.053776      0.345203 
 C347  C     0.422487      0.147078      0.319059 
 H348  H     0.143260     -0.229266     -0.389357 
 H349  H     0.361251     -0.247124      0.412364 
 H350  H     0.388656     -0.085371      0.431345 
 H351  H     0.370851     -0.121948      0.345687 
 H352  H     0.168148     -0.412475     -0.302900 
 H353  H     0.113189     -0.361336     -0.373552 
 H354  H     0.300831      0.014135      0.310561 
 H355  H     0.300407      0.048878      0.396813 
 H356  H     0.187897     -0.474371     -0.452484 
 H357  H     0.215210      0.470236     -0.374546 
 H358  H     0.049520      0.469512     -0.340211 
 H359  H     0.029380     -0.485287     -0.423886 
 H360  H     0.466426      0.050547      0.393638 
 H361  H     0.466808      0.017351      0.306856 
 H362  H     0.487979      0.175000      0.308615 
 H363  H     0.385717      0.153050      0.270467 
 H364  H     0.389179      0.185846      0.358252 
 H365  H     0.008944      0.358459     -0.428482 
 H366  H     0.106915      0.385335     -0.476723 
 H367  H     0.113690      0.339726     -0.391545 
 N368  N     0.487288      0.496189     -0.180156 
 C369  C    -0.476360      0.416124     -0.207205 
 C370  C     0.396219     -0.494557     -0.204723 
 C371  C    -0.459549     -0.431885     -0.210209 
 C372  C     0.395027     -0.494212     -0.286252 
 H373  H     0.355448      0.453039     -0.181242 
 H374  H     0.368124     -0.434828     -0.185536 
 C375  C    -0.476174      0.418324     -0.288849 
 H376  H    -0.409053      0.407502     -0.188508 
 H377  H     0.484685      0.361871     -0.184893 
 C378  C    -0.461420     -0.429796     -0.291455 
 H379  H    -0.484438     -0.371482     -0.189774 
 H380  H    -0.391395     -0.439420     -0.192752 
 H381  H    -0.408526      0.413466     -0.310294 
 H382  H     0.486829      0.364061     -0.308428 
 H383  H     0.354871      0.452548     -0.304006 
 H384  H     0.365060     -0.435059     -0.307181 
 H385  H    -0.393771     -0.434856     -0.312813 
 N386  N     0.485327      0.498784     -0.316105 
 H387  H    -0.488354     -0.368925     -0.312060 
 C388  C    -0.314139     -0.250950      0.454136 
 C389  C    -0.316299     -0.308482     -0.488062 
 C390  C    -0.258221     -0.297865     -0.432691 
 C391  C    -0.196479     -0.231018     -0.438494 
 C392  C    -0.193629     -0.174395     -0.496606 
 C393  C    -0.252345     -0.184105      0.448560 
 O394  O    -0.261239     -0.350929     -0.373749 
 C395  C    -0.195640     -0.339728     -0.321613 
 C396  C    -0.217490     -0.393168     -0.255621 
 C397  C    -0.145523     -0.391639     -0.200724 
 C398  C    -0.169053     -0.445292     -0.134153 
 O399  O    -0.247332     -0.129514      0.390708 
 C400  C    -0.312151     -0.134848      0.337490 
 C401  C    -0.279717     -0.084309      0.272533 
 C402  C    -0.347885     -0.075816      0.214762 
 C403  C    -0.310726     -0.033319      0.146706 
 H404  H    -0.148692     -0.222438     -0.397679 
 H405  H    -0.361086     -0.259242      0.412722 
 H406  H    -0.322461     -0.201554      0.323636 
 H407  H    -0.374900     -0.109488      0.357930 
 H408  H    -0.131093     -0.357914     -0.343961 
 H409  H    -0.192825     -0.272346     -0.307615 
 H410  H    -0.257659     -0.020667      0.286989 
 H411  H    -0.221243     -0.116347      0.251255 
 H412  H    -0.279145     -0.369472     -0.232198 
 H413  H    -0.229963     -0.459445     -0.269067 
 H414  H    -0.083290     -0.414941     -0.223636 
 H415  H    -0.133347     -0.325217     -0.186731 
 H416  H    -0.373404     -0.139566      0.203612 
 H417  H    -0.404559     -0.038850      0.233748 
 H418  H    -0.360513     -0.029759      0.106128 
 H419  H    -0.287612      0.032015      0.154369 
 H420  H    -0.254626     -0.069327      0.125769 
 H421  H    -0.117171     -0.441524     -0.095441 
 H422  H    -0.230548     -0.423203     -0.109402 
 H423  H    -0.178162      0.487064     -0.145298 
loop_  
_geom_bond_atom_site_label_1  
_geom_bond_atom_site_label_2  
Cu0   Cu1 
Cu0   O4 
Cu0   O7 
Cu0   O10 
Cu0   O13 
Cu0   N82 
Cu1   O2 
Cu1   O5 
Cu1   O8 
Cu1   O11 
Cu1   N276 
O2   C3 
C3   O4 
C3   C32 
O5   C6 
C6   O7 
C6   C85 
O8   C9 
C9   O10 
C9   C177 
O11   C12 
C12   O13 
C12   C124 
Cu14   Cu15 
Cu14   O18 
Cu14   O21 
Cu14   O24 
Cu14   O27 
Cu14   N174 
Cu15   O16 
Cu15   O19 
Cu15   O22 
Cu15   O25 
Cu15   N368 
O16   C17 
C17   O18 
C17   C121 
O19   C20 
C20   O21 
C20   C180 
O22   C23 
C23   O24 
C23   C88 
O25   C26 
C26   O27 
C26   C29 
C28   C29 
C28   C33 
C28   H45 
C29   C30 
C30   C31 
C30   O34 
C31   C32 
C31   H44 
C32   C33 
C33   O39 
O34   C35 
C35   C36 
C35   H48 
C35   H49 
C36   C37 
C36   H52 
C36   H53 
C37   C38 
C37   H54 
C37   H55 
C38   H61 
C38   H62 
C38   H63 
O39   C40 
C40   C41 
C40   H46 
C40   H47 
C41   C42 
C41   H50 
C41   H51 
C42   C43 
C42   H56 
C42   H57 
C43   H58 
C43   H59 
C43   H60 
N64   C65 
N64   C66 
N64   C67 
N64   Cu213 
C65   C71 
C65   H72 
C65   H73 
C66   C68 
C66   H69 
C66   H70 
C67   C74 
C67   H75 
C67   H76 
C68   H79 
C68   H80 
C68   N82 
C71   H77 
C71   H78 
C71   N82 
C74   H81 
C74   N82 
C74   H83 
C84   C85 
C84   C89 
C84   H101 
C85   C86 
C86   C87 
C86   O90 
C87   C88 
C87   H100 
C88   C89 
C89   O95 
O90   C91 
C91   C92 
C91   H104 
C91   H105 
C92   C93 
C92   H108 
C92   H109 
C93   C94 
C93   H110 
C93   H111 
C94   H117 
C94   H118 
C94   H119 
O95   C96 
C96   C97 
C96   H102 
C96   H103 
C97   C98 
C97   H106 
C97   H107 
C98   C99 
C98   H112 
C98   H113 
C99   H114 
C99   H115 
C99   H116 
C120   C121 
C120   C125 
C120   H137 
C121   C122 
C122   C123 
C122   O126 
C123   C124 
C123   H136 
C124   C125 
C125   O131 
O126   C127 
C127   C128 
C127   H140 
C127   H141 
C128   C129 
C128   H144 
C128   H145 
C129   C130 
C129   H146 
C129   H147 
C130   H153 
C130   H154 
C130   H155 
O131   C132 
C132   C133 
C132   H138 
C132   H139 
C133   C134 
C133   H142 
C133   H143 
C134   C135 
C134   H148 
C134   H149 
C135   H150 
C135   H151 
C135   H152 
N156   C157 
N156   C158 
N156   C159 
N156   Cu227 
C157   C163 
C157   H164 
C157   H165 
C158   C160 
C158   H161 
C158   H162 
C159   C166 
C159   H167 
C159   H168 
C160   H171 
C160   H172 
C160   N174 
C163   H169 
C163   H170 
C163   N174 
C166   H173 
C166   N174 
C166   H175 
C176   C177 
C176   C181 
C176   H193 
C177   C178 
C178   C179 
C178   O182 
C179   C180 
C179   H192 
C180   C181 
C181   O187 
O182   C183 
C183   C184 
C183   H196 
C183   H197 
C184   C185 
C184   H200 
C184   H201 
C185   C186 
C185   H202 
C185   H203 
C186   H209 
C186   H210 
C186   H211 
O187   C188 
C188   C189 
C188   H194 
C188   H195 
C189   C190 
C189   H198 
C189   H199 
C190   C191 
C190   H204 
C190   H205 
C191   H206 
C191   H207 
C191   H208 
Cu212   Cu213 
Cu212   O216 
Cu212   O219 
Cu212   O222 
Cu212   O225 
Cu212   N294 
Cu213   O214 
Cu213   O217 
Cu213   O220 
Cu213   O223 
O214   C215 
C215   O216 
C215   C244 
O217   C218 
C218   O219 
C218   C300 
O220   C221 
C221   O222 
C221   C392 
O223   C224 
C224   O225 
C224   C336 
Cu226   Cu227 
Cu226   O230 
Cu226   O233 
Cu226   O236 
Cu226   O239 
Cu226   N386 
Cu227   O228 
Cu227   O231 
Cu227   O234 
Cu227   O237 
O228   C229 
C229   O230 
C229   C333 
O231   C232 
C232   O233 
C232   C389 
O234   C235 
C235   O236 
C235   C297 
O237   C238 
C238   O239 
C238   C241 
C240   C241 
C240   C245 
C240   H257 
C241   C242 
C242   C243 
C242   O246 
C243   C244 
C243   H256 
C244   C245 
C245   O251 
O246   C247 
C247   C248 
C247   H260 
C247   H261 
C248   C249 
C248   H264 
C248   H265 
C249   C250 
C249   H266 
C249   H267 
C250   H273 
C250   H274 
C250   H275 
O251   C252 
C252   C253 
C252   H258 
C252   H259 
C253   C254 
C253   H262 
C253   H263 
C254   C255 
C254   H268 
C254   H269 
C255   H270 
C255   H271 
C255   H272 
N276   C277 
N276   C278 
N276   C279 
C277   C283 
C277   H284 
C277   H285 
C278   C280 
C278   H281 
C278   H282 
C279   C286 
C279   H287 
C279   H288 
C280   H291 
C280   H292 
C280   N294 
C283   H289 
C283   H290 
C283   N294 
C286   H293 
C286   N294 
C286   H295 
C296   C297 
C296   C301 
C296   H313 
C297   C298 
C298   C299 
C298   O302 
C299   C300 
C299   H312 
C300   C301 
C301   O307 
O302   C303 
C303   C304 
C303   H316 
C303   H317 
C304   C305 
C304   H320 
C304   H321 
C305   C306 
C305   H322 
C305   H323 
C306   H329 
C306   H330 
C306   H331 
O307   C308 
C308   C309 
C308   H314 
C308   H315 
C309   C310 
C309   H318 
C309   H319 
C310   C311 
C310   H324 
C310   H325 
C311   H326 
C311   H327 
C311   H328 
C332   C333 
C332   C337 
C332   H349 
C333   C334 
C334   C335 
C334   O338 
C335   C336 
C335   H348 
C336   C337 
C337   O343 
O338   C339 
C339   C340 
C339   H352 
C339   H353 
C340   C341 
C340   H356 
C340   H357 
C341   C342 
C341   H358 
C341   H359 
C342   H365 
C342   H366 
C342   H367 
O343   C344 
C344   C345 
C344   H350 
C344   H351 
C345   C346 
C345   H354 
C345   H355 
C346   C347 
C346   H360 
C346   H361 
C347   H362 
C347   H363 
C347   H364 
N368   C369 
N368   C370 
N368   C371 
C369   C375 
C369   H376 
C369   H377 
C370   C372 
C370   H373 
C370   H374 
C371   C378 
C371   H379 
C371   H380 
C372   H383 
C372   H384 
C372   N386 
C375   H381 
C375   H382 
C375   N386 
C378   H385 
C378   N386 
C378   H387 
C388   C389 
C388   C393 
C388   H405 
C389   C390 
C390   C391 
C390   O394 
C391   C392 
C391   H404 
C392   C393 
C393   O399 
O394   C395 
C395   C396 
C395   H408 
C395   H409 
C396   C397 
C396   H412 
C396   H413 
C397   C398 
C397   H414 
C397   H415 
C398   H421 
C398   H422 
C398   H423 
O399   C400 
C400   C401 
C400   H406 
C400   H407 
C401   C402 
C401   H410 
C401   H411 
C402   C403 
C402   H416 
C402   H417 
C403   H418 
C403   H419 
C403   H420 
  
#END  
