data_
_symmetry_cell_setting           triclinic 
_symmetry_space_group_name_H-M   'P 1' 
_symmetry_Int_Tables_number      1 
loop_ 
_symmetry_equiv_pos_site_id 
_symmetry_equiv_pos_as_xyz 
1 x,y,z 
_cell_length_a             14.979012        
_cell_length_b             15.990316        
_cell_length_c             19.074686        
_cell_angle_alpha          89.060548        
_cell_angle_beta           85.624852        
_cell_angle_gamma          89.945597        
loop_  
_atom_site_label   
_atom_site_type_symbol  
_atom_site_fract_x  
_atom_site_fract_y  
_atom_site_fract_z 
 Cu0  Cu    -0.007925      0.001383      0.070936 
 Cu1  Cu     0.003203      0.000681     -0.065855 
 O2  O    -0.078893      0.097566     -0.054986 
 C3  C    -0.118025      0.118525      0.003593 
 O4  O    -0.106927      0.083921      0.063022 
 O5  O     0.104522      0.081644     -0.062070 
 C6  C     0.119521      0.115577     -0.004118 
 O7  O     0.080995      0.095074      0.055680 
 O8  O    -0.101942     -0.076184     -0.048994 
 C9  C    -0.124471     -0.112315      0.009760 
 O10  O    -0.095561     -0.092413      0.068353 
 O11  O     0.084877     -0.098475     -0.058895 
 C12  C     0.116235     -0.116516     -0.000173 
 O13  O     0.092893     -0.080481      0.057470 
 Cu14  Cu     0.497305      0.499390      0.065813 
 Cu15  Cu    -0.491542      0.498689     -0.070978 
 O16  O     0.407582     -0.419501     -0.057511 
 C17  C     0.384225     -0.383469      0.000131 
 O18  O     0.415584     -0.401498      0.058855 
 O19  O    -0.403966     -0.407471     -0.068395 
 C20  C    -0.375057     -0.387566     -0.009803 
 O21  O    -0.397585     -0.423696      0.048953 
 O22  O     0.419606      0.404940     -0.055730 
 C23  C     0.381079      0.384419      0.004063 
 O24  O     0.396037      0.418371      0.062017 
 O25  O    -0.392480      0.416211     -0.063047 
 C26  C    -0.381383      0.381615     -0.003615 
 O27  O    -0.420547      0.402551      0.054958 
 C28  C    -0.261933      0.182234      0.047657 
 C29  C    -0.184254      0.188631      0.002296 
 C30  C    -0.170240      0.257290     -0.044219 
 C31  C    -0.237365      0.318030     -0.047569 
 C32  C    -0.315114      0.311548     -0.002296 
 C33  C    -0.329174      0.242834      0.044152 
 O34  O    -0.092292      0.262434     -0.086563 
 C35  C    -0.046878      0.341690     -0.094138 
 C36  C    -0.002195      0.361348     -0.027144 
 C37  C     0.056300      0.440526     -0.033801 
 C38  C     0.101824      0.460137      0.033393 
 O39  O    -0.407188      0.237614      0.086408 
 C40  C    -0.452514      0.158313      0.093935 
 C41  C    -0.497162      0.138671      0.026924 
 C42  C     0.444388      0.059462      0.033538 
 C43  C     0.398890      0.039869     -0.033671 
 H44  H    -0.228565      0.370813     -0.084492 
 H45  H    -0.270707      0.129501      0.084633 
 H46  H    -0.406423      0.108036      0.107572 
 H47  H     0.496848      0.163383      0.138523 
 H48  H     0.003750      0.336542     -0.138723 
 H49  H    -0.092915      0.391997     -0.107807 
 H50  H     0.461222      0.192320      0.012762 
 H51  H    -0.445670      0.131741     -0.017029 
 H52  H    -0.053668      0.368327      0.016816 
 H53  H     0.039394      0.307685     -0.012968 
 H54  H     0.108041      0.433285     -0.077469 
 H55  H     0.015010      0.494317     -0.048048 
 H56  H     0.485705      0.005682      0.047768 
 H57  H     0.392634      0.066655      0.077205 
 H58  H     0.357059     -0.016579     -0.026623 
 H59  H     0.355290      0.091493     -0.048588 
 H60  H     0.448440      0.029288     -0.078152 
 H61  H     0.143691     -0.483440      0.026315 
 H62  H     0.052290      0.470770      0.077875 
 H63  H     0.145395      0.408498      0.048329 
 N64  N    -0.022725      0.009105      0.322828 
 C65  C     0.020124     -0.067270      0.293775 
 C66  C    -0.115584      0.011042      0.301430 
 C67  C     0.024747      0.082868      0.290436 
 C68  C    -0.116715      0.015186      0.219356 
 H69  H    -0.150116     -0.045715      0.322803 
 H70  H    -0.151227      0.064930      0.325646 
 C71  C     0.014095     -0.070136      0.212420 
 H72  H     0.090318     -0.067743      0.306954 
 H73  H    -0.011799     -0.122846      0.319693 
 C74  C     0.027777      0.079565      0.208444 
 H75  H    -0.009953      0.139802      0.309866 
 H76  H     0.093021      0.085647      0.307903 
 H77  H     0.080470     -0.080455      0.185532 
 H78  H    -0.027736     -0.122832      0.198180 
 H79  H    -0.158694     -0.035000      0.200336 
 H80  H    -0.145696      0.074852      0.202206 
 H81  H     0.097526      0.073228      0.186296 
 N82  N    -0.024863      0.007914      0.185683 
 H83  H     0.001730      0.138076      0.186311 
 C84  C     0.280324      0.294964     -0.060629 
 C85  C     0.313303      0.314464      0.004028 
 C86  C     0.284079      0.268779      0.065185 
 C87  C     0.220384      0.204939      0.060555 
 C88  C     0.187350      0.185488     -0.004092 
 C89  C     0.216553      0.231189     -0.065244 
 O90  O     0.319344      0.287259      0.127487 
 C91  C     0.305852      0.229778      0.185991 
 C92  C     0.369858      0.252679      0.240976 
 C93  C     0.372065      0.188185      0.301201 
 C94  C     0.441172      0.205884      0.354324 
 O95  O     0.181248      0.212738     -0.127536 
 C96  C     0.194798      0.270189     -0.186056 
 C97  C     0.130797      0.247299     -0.241048 
 C98  C     0.128606      0.311799     -0.301269 
 C99  C     0.059477      0.294135     -0.354382 
 H100  H     0.196550      0.169916      0.107868 
 H101  H     0.304180      0.329966     -0.107947 
 H102  H     0.181687      0.334433     -0.167929 
 H103  H     0.264918      0.266442     -0.207895 
 H104  H     0.235735      0.233478      0.207845 
 H105  H     0.319002      0.165548      0.167845 
 H106  H     0.148221      0.185422     -0.262572 
 H107  H     0.062961      0.242067     -0.215181 
 H108  H     0.437691      0.257912      0.215102 
 H109  H     0.352428      0.314557      0.262498 
 H110  H     0.305050      0.183777      0.328999 
 H111  H     0.387217      0.126816      0.278280 
 H112  H     0.113487      0.373170     -0.278341 
 H113  H     0.195617      0.316183     -0.329075 
 H114  H     0.061748      0.342513     -0.396078 
 H115  H     0.072369      0.233950     -0.380029 
 H116  H    -0.008995      0.292715     -0.329179 
 H117  H     0.438916      0.157508      0.396021 
 H118  H    -0.490353      0.207333      0.329129 
 H119  H     0.428242      0.266065      0.379967 
 C120  C     0.295314     -0.267941      0.060217 
 C121  C     0.314900     -0.314357     -0.000696 
 C122  C     0.268968     -0.296811     -0.060780 
 C123  C     0.205081     -0.232098     -0.060241 
 C124  C     0.185541     -0.185645      0.000657 
 C125  C     0.231505     -0.203164      0.060729 
 O126  O     0.289765     -0.342766     -0.119469 
 C127  C     0.216989     -0.369293     -0.157638 
 C128  C     0.252462     -0.427308     -0.215576 
 C129  C     0.181273     -0.467324     -0.258143 
 C130  C     0.220724      0.494621     -0.327043 
 O131  O     0.210750     -0.157176      0.119406 
 C132  C     0.283547     -0.130650      0.157552 
 C133  C     0.248083     -0.072654      0.215509 
 C134  C     0.319278     -0.032623      0.258060 
 C135  C     0.279850      0.005376      0.326991 
 H136  H     0.171352     -0.217414     -0.107679 
 H137  H     0.329014     -0.282645      0.107664 
 H138  H     0.311884     -0.187211      0.180440 
 H139  H     0.334477     -0.099799      0.121156 
 H140  H     0.166033     -0.400128     -0.121253 
 H141  H     0.188680     -0.312731     -0.180544 
 H142  H     0.208948     -0.022366      0.192440 
 H143  H     0.202009     -0.109490      0.251429 
 H144  H     0.298561     -0.390490     -0.251490 
 H145  H     0.291571     -0.477603     -0.192489 
 H146  H     0.144960      0.484873     -0.225091 
 H147  H     0.130807     -0.421040     -0.270833 
 H148  H     0.369784     -0.078886      0.270710 
 H149  H     0.355539      0.015214      0.225011 
 H150  H     0.332528      0.029223      0.358403 
 H151  H     0.234018      0.057142      0.317326 
 H152  H     0.241925     -0.041043      0.360200 
 H153  H     0.168054      0.470786     -0.358470 
 H154  H     0.258701     -0.459000     -0.360256 
 H155  H     0.266514      0.442836     -0.317336 
 N156  N    -0.476338      0.487399      0.314177 
 C157  C    -0.450756      0.404357      0.286265 
 C158  C     0.432902     -0.493198      0.292912 
 C159  C    -0.412398     -0.451273      0.280384 
 C160  C     0.428849      0.499151      0.211855 
 H161  H     0.383943      0.464502      0.321032 
 H162  H     0.414878     -0.429304      0.309243 
 C163  C    -0.445242      0.406216      0.203995 
 H164  H    -0.386445      0.384696      0.305779 
 H165  H     0.498737      0.358907      0.307440 
 C166  C    -0.421158     -0.447160      0.199386 
 H167  H    -0.423298     -0.389393      0.303814 
 H168  H    -0.344211     -0.470492      0.291909 
 H169  H    -0.375090      0.399768      0.182616 
 H170  H    -0.482167      0.354024      0.183036 
 H171  H     0.386398      0.445855      0.199588 
 H172  H     0.398128     -0.444421      0.190044 
 H173  H    -0.354791     -0.452547      0.170630 
 N174  N    -0.480523      0.485996      0.177483 
 H175  H    -0.449812     -0.386925      0.184077 
 C176  C    -0.264103     -0.309433      0.053949 
 C177  C    -0.309618     -0.316191     -0.007233 
 C178  C    -0.295141     -0.256684     -0.061949 
 C179  C    -0.235393     -0.190471     -0.054006 
 C180  C    -0.189900     -0.183697      0.007186 
 C181  C    -0.204390     -0.243196      0.061906 
 O182  O    -0.340637     -0.264480     -0.121148 
 C183  C    -0.328577     -0.202675     -0.176427 
 C184  C    -0.384242     -0.229636     -0.235311 
 C185  C    -0.373282     -0.173490     -0.301347 
 C186  C    -0.427323     -0.205375     -0.360437 
 O187  O    -0.158910     -0.235388      0.121112 
 C188  C    -0.170929     -0.297218      0.176373 
 C189  C    -0.115233     -0.270273      0.235244 
 C190  C    -0.126157     -0.326438      0.301270 
 C191  C    -0.072060     -0.294583      0.360338 
 H192  H    -0.224412     -0.143619     -0.095948 
 H193  H    -0.275074     -0.356292      0.095887 
 H194  H    -0.242194     -0.301122      0.195219 
 H195  H    -0.148970     -0.358786      0.156376 
 H196  H    -0.350532     -0.141095     -0.156453 
 H197  H    -0.257303     -0.198791     -0.195251 
 H198  H    -0.044037     -0.268321      0.215789 
 H199  H    -0.134144     -0.205986      0.249883 
 H200  H    -0.365324     -0.293927     -0.249931 
 H201  H    -0.455446     -0.231583     -0.215879 
 H202  H    -0.394159     -0.109235     -0.288125 
 H203  H    -0.301996     -0.169792     -0.320141 
 H204  H    -0.197433     -0.330125      0.320096 
 H205  H    -0.105305     -0.390693      0.288026 
 H206  H    -0.084356     -0.332843      0.408370 
 H207  H     0.000169     -0.295260      0.345076 
 H208  H    -0.090425     -0.230129      0.374078 
 H209  H    -0.415009     -0.167123     -0.408470 
 H210  H    -0.408924     -0.269827     -0.374159 
 H211  H    -0.499561     -0.204719     -0.345205 
 Cu212  Cu    -0.009133     -0.001125     -0.427529 
 Cu213  Cu     0.002541      0.001985      0.435518 
 O214  O    -0.091507      0.089770      0.445403 
 C215  C    -0.130407      0.108548     -0.495208 
 O216  O    -0.114524      0.075892     -0.436088 
 O217  O     0.096430      0.091139      0.442263 
 C218  C     0.116330      0.117788     -0.498184 
 O219  O     0.078451      0.094247     -0.439072 
 O220  O    -0.094346     -0.083778      0.450892 
 C221  C    -0.118932     -0.118205     -0.489879 
 O222  O    -0.091330     -0.097996     -0.431099 
 O223  O     0.094686     -0.089104      0.442748 
 C224  C     0.120250     -0.113275     -0.497879 
 O225  O     0.093394     -0.081480     -0.439226 
 Cu226  Cu     0.498029      0.498046     -0.435567 
 Cu227  Cu    -0.490288     -0.498861      0.427480 
 O228  O     0.407189     -0.418500      0.439161 
 C229  C     0.380310     -0.386716      0.497813 
 O230  O     0.405861     -0.410890     -0.442810 
 O231  O    -0.408095     -0.401992      0.431034 
 C232  C    -0.380498     -0.381769      0.489811 
 O233  O    -0.405099     -0.416171     -0.450952 
 O234  O     0.422133      0.405771      0.439019 
 C235  C     0.384274      0.382208      0.498132 
 O236  O     0.404169      0.408857     -0.442313 
 O237  O    -0.384898      0.424118      0.436059 
 C238  C    -0.369010      0.391484      0.495187 
 O239  O    -0.407905      0.410283     -0.445429 
 C240  C    -0.341675      0.242765     -0.482138 
 C241  C    -0.304715      0.319894      0.496040 
 C242  C    -0.212327      0.328526      0.478780 
 C243  C    -0.157726      0.257285      0.482200 
 C244  C    -0.194699      0.180141     -0.496039 
 C245  C    -0.287095      0.171500     -0.478818 
 O246  O    -0.176517      0.405475      0.460355 
 C247  C    -0.082140      0.414812      0.467540 
 C248  C    -0.052738     -0.494733      0.457367 
 C249  C     0.037356     -0.478030      0.488449 
 C250  C     0.071941     -0.388349      0.477227 
 O251  O    -0.322916      0.094541     -0.460444 
 C252  C    -0.417296      0.085225     -0.467625 
 C253  C    -0.446712     -0.005227     -0.457455 
 C254  C     0.463195     -0.021925     -0.488538 
 C255  C     0.428601     -0.111604     -0.477309 
 H256  H    -0.085627      0.260582      0.468055 
 H257  H    -0.413767      0.239476     -0.467958 
 H258  H    -0.454920      0.123723     -0.428147 
 H259  H    -0.431749      0.108188      0.479598 
 H260  H    -0.067687      0.391865     -0.479678 
 H261  H    -0.044509      0.376311      0.428069 
 H262  H    -0.394781     -0.046516     -0.481798 
 H263  H    -0.451873     -0.021310     -0.400936 
 H264  H    -0.047579     -0.478650      0.400848 
 H265  H    -0.104670     -0.453448      0.481713 
 H266  H     0.030870     -0.492615     -0.454784 
 H267  H     0.088276      0.478554      0.465689 
 H268  H     0.412276      0.021496     -0.465782 
 H269  H     0.469684     -0.007346      0.454694 
 H270  H     0.365226     -0.119556      0.498210 
 H271  H     0.476207     -0.157683      0.499476 
 H272  H     0.415661     -0.127155     -0.421148 
 H273  H     0.135316     -0.380398     -0.498292 
 H274  H     0.084881     -0.372791      0.421067 
 H275  H     0.024333     -0.342274     -0.499554 
 N276  N    -0.018964      0.014080     -0.177528 
 C277  C     0.071667      0.000915     -0.211891 
 C278  C    -0.078330     -0.052762     -0.199433 
 C279  C    -0.054234      0.093860     -0.204049 
 C280  C    -0.087073     -0.048660     -0.280434 
 H281  H    -0.049685     -0.112997     -0.184113 
 H282  H    -0.144701     -0.047366     -0.170686 
 C283  C     0.067630     -0.006734     -0.292949 
 H284  H     0.114121      0.054206     -0.199619 
 H285  H     0.102377     -0.055515     -0.190076 
 C286  C    -0.048713      0.095709     -0.286319 
 H287  H    -0.124386      0.100316     -0.182672 
 H288  H    -0.017304      0.146051     -0.183093 
 H289  H     0.116589      0.035571     -0.321062 
 H290  H     0.085664     -0.070625     -0.309283 
 H291  H    -0.076170     -0.110543     -0.303857 
 H292  H    -0.155256     -0.029442     -0.291970 
 H293  H     0.001792      0.141158     -0.307495 
 N294  N    -0.023127      0.012664     -0.314225 
 H295  H    -0.113024      0.115365     -0.305837 
 C296  C     0.190560      0.244693      0.447163 
 C297  C     0.187996      0.184309     -0.498666 
 C298  C     0.248978      0.188328     -0.446143 
 C299  C     0.310160      0.255213     -0.447273 
 C300  C     0.312644      0.315657      0.498605 
 C301  C     0.251613      0.311674      0.446116 
 O302  O     0.247146      0.126040     -0.395664 
 C303  C     0.319216      0.119996     -0.350184 
 C304  C     0.310171      0.037848     -0.308761 
 C305  C     0.388135      0.019727     -0.262865 
 C306  C     0.377483     -0.063392     -0.221725 
 O307  O     0.253368      0.374018      0.395688 
 C308  C     0.181336      0.379987      0.350167 
 C309  C     0.190301      0.462155      0.308766 
 C310  C     0.112370      0.480174      0.262813 
 C311  C     0.122944     -0.436694      0.221683 
 H312  H     0.357308      0.259682     -0.406536 
 H313  H     0.143452      0.240196      0.406399 
 H314  H     0.184759      0.326602      0.314284 
 H315  H     0.116767      0.377329      0.381840 
 H316  H     0.383764      0.122564     -0.381889 
 H317  H     0.315903      0.173396     -0.314318 
 H318  H     0.196613     -0.485878      0.345366 
 H319  H     0.252795      0.461380      0.274607 
 H320  H     0.247716      0.038715     -0.274558 
 H321  H     0.303731     -0.014117     -0.345344 
 H322  H     0.451417      0.019009     -0.296235 
 H323  H     0.393818      0.071112     -0.225691 
 H324  H     0.106810      0.428782      0.225627 
 H325  H     0.049051      0.480809      0.296139 
 H326  H     0.065985     -0.425380      0.189701 
 H327  H     0.126884     -0.383618      0.257240 
 H328  H     0.184084     -0.436240      0.185860 
 H329  H     0.434466     -0.074780     -0.189783 
 H330  H     0.316379     -0.063769     -0.185863 
 H331  H     0.373424     -0.116463     -0.257273 
 C332  C     0.230675     -0.208457      0.437862 
 C333  C     0.186535     -0.184943     -0.497866 
 C334  C     0.204699     -0.227934     -0.435495 
 C335  C     0.269783     -0.291625     -0.437944 
 C336  C     0.314011     -0.315061      0.497796 
 C337  C     0.295913     -0.272011      0.435437 
 O338  O     0.159163     -0.205974     -0.373296 
 C339  C     0.132990     -0.271662     -0.323788 
 C340  C     0.063629     -0.239068     -0.267787 
 C341  C     0.017704     -0.306281     -0.218389 
 C342  C    -0.048553     -0.272721     -0.160312 
 O343  O     0.341526     -0.293918      0.373257 
 C344  C     0.367618     -0.228225      0.323734 
 C345  C     0.436968     -0.260817      0.267722 
 C346  C     0.482864     -0.193613      0.218298 
 C347  C    -0.450891     -0.227186      0.160220 
 H348  H     0.285605     -0.322627     -0.389098 
 H349  H     0.214809     -0.177500      0.389008 
 H350  H     0.307373     -0.206433      0.299471 
 H351  H     0.394873     -0.176214      0.352701 
 H352  H     0.105718     -0.323650     -0.352774 
 H353  H     0.193208     -0.293495     -0.299511 
 H354  H     0.488917     -0.293424      0.295293 
 H355  H     0.405326     -0.307763      0.236069 
 H356  H     0.095268     -0.192139     -0.236116 
 H357  H     0.011700     -0.206444     -0.295366 
 H358  H    -0.016490     -0.351005     -0.249963 
 H359  H     0.067217     -0.343661     -0.192746 
 H360  H     0.433333     -0.156256      0.192653 
 H361  H    -0.482943     -0.148867      0.249853 
 H362  H    -0.421089     -0.175890      0.127232 
 H363  H    -0.395534     -0.261508      0.181901 
 H364  H    -0.484065     -0.269163      0.125174 
 H365  H    -0.078365     -0.324027     -0.127339 
 H366  H    -0.015386     -0.230759     -0.125250 
 H367  H    -0.103903     -0.238391     -0.181994 
 N368  N    -0.474583      0.492168     -0.185726 
 C369  C    -0.382727      0.484900     -0.219392 
 C370  C     0.472785      0.420512     -0.208489 
 C371  C     0.486456     -0.429787     -0.212469 
 C372  C     0.475813      0.417211     -0.290480 
 H373  H     0.498842      0.362004     -0.186359 
 H374  H     0.403036      0.426839     -0.186339 
 C375  C    -0.383846      0.489023     -0.301467 
 H376  H    -0.340759     -0.464902     -0.200376 
 H377  H    -0.353738      0.425243     -0.202229 
 C378  C     0.480455     -0.432651     -0.293828 
 H379  H     0.420071     -0.419480     -0.185594 
 H380  H    -0.471728     -0.377084     -0.198219 
 H381  H    -0.349299     -0.454232     -0.322850 
 H382  H    -0.348212      0.435122     -0.325668 
 H383  H    -0.489500      0.360271     -0.309911 
 H384  H     0.407537      0.414447     -0.307946 
 H385  H    -0.487600     -0.377082     -0.319741 
 N386  N    -0.476702      0.490967     -0.322872 
 H387  H     0.410267     -0.432162     -0.307023 
 C388  C    -0.259426     -0.315439     -0.451143 
 C389  C    -0.312186     -0.313257      0.491546 
 C390  C    -0.302175     -0.248081      0.441277 
 C391  C    -0.239926     -0.184594      0.451021 
 C392  C    -0.187223     -0.186736     -0.491632 
 C393  C    -0.197271     -0.251888     -0.441343 
 O394  O    -0.353373     -0.246774      0.384582 
 C395  C    -0.341551     -0.179170      0.333994 
 C396  C    -0.393540     -0.102442      0.361348 
 C397  C    -0.364023     -0.018276      0.326707 
 C398  C    -0.370132     -0.012121      0.246837 
 O399  O    -0.146127     -0.253165     -0.384616 
 C400  C    -0.157939     -0.320789     -0.334047 
 C401  C    -0.105893     -0.397488     -0.361400 
 C402  C    -0.135372     -0.481669     -0.326767 
 C403  C    -0.129289     -0.487815     -0.246895 
 H404  H    -0.231648     -0.132146      0.413732 
 H405  H    -0.267677     -0.367910     -0.413873 
 H406  H    -0.133019     -0.298544     -0.285090 
 H407  H    -0.229478     -0.334035     -0.321435 
 H408  H    -0.270011     -0.165959      0.321350 
 H409  H    -0.366514     -0.201419      0.285054 
 H410  H    -0.112979     -0.402040     -0.418090 
 H411  H    -0.033810     -0.388201     -0.356943 
 H412  H    -0.465631     -0.111693      0.356905 
 H413  H    -0.386426     -0.097895      0.418035 
 H414  H    -0.404951      0.031810      0.351798 
 H415  H    -0.295105     -0.005112      0.339287 
 H416  H    -0.204277     -0.494870     -0.339362 
 H417  H    -0.094406      0.468265     -0.351850 
 H418  H    -0.154500      0.451424     -0.226148 
 H419  H    -0.059752     -0.482259     -0.232931 
 H420  H    -0.169039     -0.438988     -0.219161 
 H421  H    -0.344890      0.048627      0.226086 
 H422  H    -0.330422     -0.060969      0.219096 
 H423  H    -0.439679     -0.017636      0.232890 
loop_  
_geom_bond_atom_site_label_1  
_geom_bond_atom_site_label_2  
Cu0   Cu1 
Cu0   O4 
Cu0   O7 
Cu0   O10 
Cu0   O13 
Cu0   N82 
Cu1   O2 
Cu1   O5 
Cu1   O8 
Cu1   O11 
Cu1   N276 
O2   C3 
C3   O4 
C3   C29 
O5   C6 
C6   O7 
C6   C88 
O8   C9 
C9   O10 
C9   C180 
O11   C12 
C12   O13 
C12   C124 
Cu14   Cu15 
Cu14   O18 
Cu14   O21 
Cu14   O24 
Cu14   O27 
Cu14   N174 
Cu15   O16 
Cu15   O19 
Cu15   O22 
Cu15   O25 
Cu15   N368 
O16   C17 
C17   O18 
C17   C121 
O19   C20 
C20   O21 
C20   C177 
O22   C23 
C23   O24 
C23   C85 
O25   C26 
C26   O27 
C26   C32 
C28   C29 
C28   C33 
C28   H45 
C29   C30 
C30   C31 
C30   O34 
C31   C32 
C31   H44 
C32   C33 
C33   O39 
O34   C35 
C35   C36 
C35   H48 
C35   H49 
C36   C37 
C36   H52 
C36   H53 
C37   C38 
C37   H54 
C37   H55 
C38   H61 
C38   H62 
C38   H63 
O39   C40 
C40   C41 
C40   H46 
C40   H47 
C41   C42 
C41   H50 
C41   H51 
C42   C43 
C42   H56 
C42   H57 
C43   H58 
C43   H59 
C43   H60 
N64   C65 
N64   C66 
N64   C67 
N64   Cu213 
C65   C71 
C65   H72 
C65   H73 
C66   C68 
C66   H69 
C66   H70 
C67   C74 
C67   H75 
C67   H76 
C68   H79 
C68   H80 
C68   N82 
C71   H77 
C71   H78 
C71   N82 
C74   H81 
C74   N82 
C74   H83 
C84   C85 
C84   C89 
C84   H101 
C85   C86 
C86   C87 
C86   O90 
C87   C88 
C87   H100 
C88   C89 
C89   O95 
O90   C91 
C91   C92 
C91   H104 
C91   H105 
C92   C93 
C92   H108 
C92   H109 
C93   C94 
C93   H110 
C93   H111 
C94   H117 
C94   H118 
C94   H119 
O95   C96 
C96   C97 
C96   H102 
C96   H103 
C97   C98 
C97   H106 
C97   H107 
C98   C99 
C98   H112 
C98   H113 
C99   H114 
C99   H115 
C99   H116 
C120   C121 
C120   C125 
C120   H137 
C121   C122 
C122   C123 
C122   O126 
C123   C124 
C123   H136 
C124   C125 
C125   O131 
O126   C127 
C127   C128 
C127   H140 
C127   H141 
C128   C129 
C128   H144 
C128   H145 
C129   C130 
C129   H146 
C129   H147 
C130   H153 
C130   H154 
C130   H155 
O131   C132 
C132   C133 
C132   H138 
C132   H139 
C133   C134 
C133   H142 
C133   H143 
C134   C135 
C134   H148 
C134   H149 
C135   H150 
C135   H151 
C135   H152 
N156   C157 
N156   C158 
N156   C159 
N156   Cu227 
C157   C163 
C157   H164 
C157   H165 
C158   C160 
C158   H161 
C158   H162 
C159   C166 
C159   H167 
C159   H168 
C160   H171 
C160   H172 
C160   N174 
C163   H169 
C163   H170 
C163   N174 
C166   H173 
C166   N174 
C166   H175 
C176   C177 
C176   C181 
C176   H193 
C177   C178 
C178   C179 
C178   O182 
C179   C180 
C179   H192 
C180   C181 
C181   O187 
O182   C183 
C183   C184 
C183   H196 
C183   H197 
C184   C185 
C184   H200 
C184   H201 
C185   C186 
C185   H202 
C185   H203 
C186   H209 
C186   H210 
C186   H211 
O187   C188 
C188   C189 
C188   H194 
C188   H195 
C189   C190 
C189   H198 
C189   H199 
C190   C191 
C190   H204 
C190   H205 
C191   H206 
C191   H207 
C191   H208 
Cu212   Cu213 
Cu212   O216 
Cu212   O219 
Cu212   O222 
Cu212   O225 
Cu212   N294 
Cu213   O214 
Cu213   O217 
Cu213   O220 
Cu213   O223 
O214   C215 
C215   O216 
C215   C244 
O217   C218 
C218   O219 
C218   C297 
O220   C221 
C221   O222 
C221   C392 
O223   C224 
C224   O225 
C224   C333 
Cu226   Cu227 
Cu226   O230 
Cu226   O233 
Cu226   O236 
Cu226   O239 
Cu226   N386 
Cu227   O228 
Cu227   O231 
Cu227   O234 
Cu227   O237 
O228   C229 
C229   O230 
C229   C336 
O231   C232 
C232   O233 
C232   C389 
O234   C235 
C235   O236 
C235   C300 
O237   C238 
C238   O239 
C238   C241 
C240   C241 
C240   C245 
C240   H257 
C241   C242 
C242   C243 
C242   O246 
C243   C244 
C243   H256 
C244   C245 
C245   O251 
O246   C247 
C247   C248 
C247   H260 
C247   H261 
C248   C249 
C248   H264 
C248   H265 
C249   C250 
C249   H266 
C249   H267 
C250   H273 
C250   H274 
C250   H275 
O251   C252 
C252   C253 
C252   H258 
C252   H259 
C253   C254 
C253   H262 
C253   H263 
C254   C255 
C254   H268 
C254   H269 
C255   H270 
C255   H271 
C255   H272 
N276   C277 
N276   C278 
N276   C279 
C277   C283 
C277   H284 
C277   H285 
C278   C280 
C278   H281 
C278   H282 
C279   C286 
C279   H287 
C279   H288 
C280   H291 
C280   H292 
C280   N294 
C283   H289 
C283   H290 
C283   N294 
C286   H293 
C286   N294 
C286   H295 
C296   C297 
C296   C301 
C296   H313 
C297   C298 
C298   C299 
C298   O302 
C299   C300 
C299   H312 
C300   C301 
C301   O307 
O302   C303 
C303   C304 
C303   H316 
C303   H317 
C304   C305 
C304   H320 
C304   H321 
C305   C306 
C305   H322 
C305   H323 
C306   H329 
C306   H330 
C306   H331 
O307   C308 
C308   C309 
C308   H314 
C308   H315 
C309   C310 
C309   H318 
C309   H319 
C310   C311 
C310   H324 
C310   H325 
C311   H326 
C311   H327 
C311   H328 
C332   C333 
C332   C337 
C332   H349 
C333   C334 
C334   C335 
C334   O338 
C335   C336 
C335   H348 
C336   C337 
C337   O343 
O338   C339 
C339   C340 
C339   H352 
C339   H353 
C340   C341 
C340   H356 
C340   H357 
C341   C342 
C341   H358 
C341   H359 
C342   H365 
C342   H366 
C342   H367 
O343   C344 
C344   C345 
C344   H350 
C344   H351 
C345   C346 
C345   H354 
C345   H355 
C346   C347 
C346   H360 
C346   H361 
C347   H362 
C347   H363 
C347   H364 
N368   C369 
N368   C370 
N368   C371 
C369   C375 
C369   H376 
C369   H377 
C370   C372 
C370   H373 
C370   H374 
C371   C378 
C371   H379 
C371   H380 
C372   H383 
C372   H384 
C372   N386 
C375   H381 
C375   H382 
C375   N386 
C378   H385 
C378   N386 
C378   H387 
C388   C389 
C388   C393 
C388   H405 
C389   C390 
C390   C391 
C390   O394 
C391   C392 
C391   H404 
C392   C393 
C393   O399 
O394   C395 
C395   C396 
C395   H408 
C395   H409 
C396   C397 
C396   H412 
C396   H413 
C397   C398 
C397   H414 
C397   H415 
C398   H421 
C398   H422 
C398   H423 
O399   C400 
C400   C401 
C400   H406 
C400   H407 
C401   C402 
C401   H410 
C401   H411 
C402   C403 
C402   H416 
C402   H417 
C403   H418 
C403   H419 
C403   H420 
  
#END  
