data_
_symmetry_cell_setting           triclinic 
_symmetry_space_group_name_H-M   'P 1' 
_symmetry_Int_Tables_number      1 
loop_ 
_symmetry_equiv_pos_site_id 
_symmetry_equiv_pos_as_xyz 
1 x,y,z 
_cell_length_a             15.485207        
_cell_length_b             15.436210        
_cell_length_c             19.122799        
_cell_angle_alpha          93.754810        
_cell_angle_beta           92.002326        
_cell_angle_gamma          90.028996        
loop_  
_atom_site_label   
_atom_site_type_symbol  
_atom_site_fract_x  
_atom_site_fract_y  
_atom_site_fract_z 
 Cu0  Cu     0.004374     -0.008329      0.059268 
 Cu1  Cu    -0.005439     -0.014137     -0.077178 
 O2  O    -0.087492      0.085803     -0.057641 
 C3  C    -0.117572      0.106619      0.002583 
 O4  O    -0.095604      0.071444      0.058805 
 O5  O     0.094980      0.068197     -0.064901 
 C6  C     0.120335      0.103536     -0.005650 
 O7  O     0.086769      0.089876      0.052666 
 O8  O    -0.102583     -0.098751     -0.074944 
 C9  C    -0.117083     -0.129969     -0.016377 
 O10  O    -0.077435     -0.107940      0.041722 
 O11  O     0.078414     -0.114132     -0.072153 
 C12  C     0.115544     -0.129828     -0.013766 
 O13  O     0.102179     -0.088820      0.044870 
 Cu14  Cu    -0.494457      0.498424      0.078228 
 Cu15  Cu     0.497406      0.487967     -0.058345 
 O16  O     0.393019     -0.438432     -0.050175 
 C17  C     0.375137     -0.399089      0.008202 
 O18  O     0.411568     -0.412572      0.067329 
 O19  O    -0.429019     -0.405561     -0.042322 
 C20  C    -0.392210     -0.378442      0.015790 
 O21  O    -0.407312     -0.406838      0.075186 
 O22  O     0.423170      0.382879     -0.049157 
 C23  C     0.393226      0.365636      0.009774 
 O24  O     0.416465      0.403930      0.068458 
 O25  O    -0.395819      0.416496     -0.052544 
 C26  C    -0.370963      0.386001      0.005027 
 O27  O    -0.401188      0.408522      0.064816 
 C28  C    -0.190026      0.229621     -0.051735 
 C29  C    -0.182550      0.179506      0.006389 
 C30  C    -0.234805      0.198032      0.064158 
 C31  C    -0.294769      0.266425      0.061875 
 C32  C    -0.302795      0.316023      0.003377 
 C33  C    -0.249369      0.298460     -0.053764 
 O34  O    -0.226784      0.149291      0.121459 
 C35  C    -0.289480      0.162921      0.174356 
 C36  C    -0.269696      0.107343      0.235397 
 C37  C    -0.344233      0.105988      0.286305 
 C38  C    -0.379220      0.196396      0.307936 
 O39  O    -0.255083      0.348514     -0.110351 
 C40  C    -0.194989      0.329968     -0.164545 
 C41  C    -0.209621      0.389608     -0.223583 
 C42  C    -0.143183      0.376116     -0.280847 
 C43  C    -0.144084      0.283862     -0.315916 
 H44  H    -0.337335      0.280942      0.105462 
 H45  H    -0.147881      0.214632     -0.095523 
 H46  H    -0.128603      0.338114     -0.142259 
 H47  H    -0.204548      0.262031     -0.184668 
 H48  H    -0.287797      0.231760      0.193622 
 H49  H    -0.354055      0.147313      0.150694 
 H50  H    -0.274624      0.377856     -0.247277 
 H51  H    -0.207595      0.457611     -0.202235 
 H52  H    -0.255385      0.040590      0.215363 
 H53  H    -0.210886      0.132058      0.264031 
 H54  H    -0.397189      0.065323      0.262235 
 H55  H    -0.321863      0.074209      0.333504 
 H56  H    -0.156493      0.422907     -0.320805 
 H57  H    -0.078114      0.391826     -0.258452 
 H58  H    -0.093169      0.275491     -0.354246 
 H59  H    -0.133050      0.234640     -0.277763 
 H60  H    -0.206167      0.269134     -0.343748 
 H61  H    -0.432016      0.192435      0.344405 
 H62  H    -0.328610      0.238347      0.333845 
 H63  H    -0.405663      0.228887      0.262536 
 N64  N     0.008302      0.002174      0.310903 
 C65  C    -0.058484     -0.058160      0.279203 
 C66  C    -0.009645      0.089313      0.286585 
 C67  C     0.093478     -0.024709      0.284627 
 C68  C    -0.011589      0.087911      0.204777 
 H69  H    -0.071229      0.113357      0.307420 
 H70  H     0.041383      0.133382      0.308937 
 C71  C    -0.058037     -0.060346      0.197433 
 H72  H    -0.046825     -0.123463      0.297607 
 H73  H    -0.122102     -0.037213      0.298162 
 C74  C     0.093344     -0.025739      0.202698 
 H75  H     0.143395      0.020118      0.308441 
 H76  H     0.109115     -0.089089      0.302912 
 H77  H    -0.044316     -0.126455      0.175465 
 H78  H    -0.121987     -0.042384      0.175742 
 H79  H    -0.075654      0.107951      0.184981 
 H80  H     0.035524      0.134322      0.186596 
 H81  H     0.109461     -0.090874      0.179966 
 N82  N     0.007784     -0.000040      0.174062 
 H83  H     0.142830      0.018934      0.185539 
 C84  C     0.219509      0.206306      0.062649 
 C85  C     0.195602      0.166073     -0.002806 
 C86  C     0.239821      0.187136     -0.062391 
 C87  C     0.303707      0.251881     -0.056541 
 C88  C     0.325142      0.295031      0.008527 
 C89  C     0.281988      0.272703      0.068625 
 O90  O     0.218549      0.149479     -0.127178 
 C91  C     0.285651      0.101629     -0.162070 
 C92  C     0.253914      0.081233     -0.237449 
 C93  C     0.316455      0.025564     -0.281428 
 C94  C     0.286712      0.010161     -0.358527 
 O95  O     0.300269      0.316911      0.131894 
 C96  C     0.243005      0.309416      0.188943 
 C97  C     0.243867      0.395055      0.232898 
 C98  C     0.189310      0.466977      0.201029 
 C99  C     0.207564      0.483508      0.124511 
 H100  H     0.334715      0.269487     -0.104024 
 H101  H     0.187705      0.186773      0.109220 
 H102  H     0.176144      0.295055      0.170244 
 H103  H     0.265909      0.255692      0.219924 
 H104  H     0.346425      0.138978     -0.159948 
 H105  H     0.297528      0.041817     -0.134751 
 H106  H     0.219641      0.384035      0.285023 
 H107  H     0.310873      0.417467      0.242098 
 H108  H     0.192333      0.046080     -0.237028 
 H109  H     0.239859      0.142116     -0.262552 
 H110  H     0.381235      0.054985     -0.277854 
 H111  H     0.323077     -0.037106     -0.258035 
 H112  H     0.120329      0.451131      0.204550 
 H113  H     0.200048     -0.472769      0.234156 
 H114  H     0.168618     -0.462715      0.105779 
 H115  H     0.275697      0.499781      0.117827 
 H116  H     0.191725      0.426584      0.088885 
 H117  H     0.331417     -0.032075     -0.388206 
 H118  H     0.222388     -0.019605     -0.363706 
 H119  H     0.282020      0.070666     -0.385040 
 C120  C     0.243366     -0.339649     -0.049972 
 C121  C     0.305772     -0.331193      0.005024 
 C122  C     0.304792     -0.258524      0.053070 
 C123  C     0.243886     -0.192883      0.043948 
 C124  C     0.181709     -0.200904     -0.011043 
 C125  C     0.181977     -0.274046     -0.058769 
 O126  O     0.365209     -0.246788      0.106479 
 C127  C     0.330755     -0.244669      0.175078 
 C128  C     0.397441     -0.207287      0.228826 
 C129  C     0.366668     -0.209583      0.304105 
 C130  C     0.434804     -0.178785      0.359909 
 O131  O     0.120676     -0.285600     -0.111565 
 C132  C     0.152241     -0.277326     -0.180291 
 C133  C     0.081167     -0.300790     -0.235061 
 C134  C     0.106663     -0.280914     -0.309241 
 C135  C     0.034573     -0.296715     -0.365457 
 H136  H     0.246168     -0.135306      0.080339 
 H137  H     0.241883     -0.396640     -0.086943 
 H138  H     0.173101     -0.209519     -0.183460 
 H139  H     0.208886     -0.319411     -0.188544 
 H140  H     0.271127     -0.205936      0.177203 
 H141  H     0.313884     -0.311800      0.185574 
 H142  H     0.064832     -0.370159     -0.233971 
 H143  H     0.022254     -0.264634     -0.221249 
 H144  H     0.458357     -0.243473      0.223665 
 H145  H     0.412290     -0.139830      0.217731 
 H146  H     0.308271     -0.169430      0.310089 
 H147  H     0.347526     -0.276243      0.313522 
 H148  H     0.127296     -0.212767     -0.308527 
 H149  H     0.163380     -0.320098     -0.323988 
 H150  H     0.055812     -0.279976     -0.417161 
 H151  H     0.014986     -0.365087     -0.370046 
 H152  H    -0.022872     -0.257557     -0.353445 
 H153  H     0.409762     -0.180543      0.412902 
 H154  H     0.492506     -0.220131      0.357717 
 H155  H     0.454401     -0.111829      0.352354 
 N156  N    -0.484787      0.498096      0.328284 
 C157  C    -0.496925      0.408442      0.297259 
 C158  C     0.445719     -0.447020      0.300333 
 C159  C    -0.401294     -0.469093      0.305121 
 C160  C     0.446629     -0.449708      0.218625 
 H161  H     0.382822     -0.469298      0.317864 
 H162  H     0.455186     -0.379990      0.322858 
 C163  C    -0.494636      0.406108      0.215553 
 H164  H    -0.445868      0.366956      0.318560 
 H165  H     0.441086      0.382753      0.313764 
 C166  C    -0.400398     -0.470747      0.223274 
 H167  H    -0.390998     -0.402323      0.328033 
 H168  H    -0.348483      0.491088      0.326071 
 H169  H    -0.441560      0.364554      0.196109 
 H170  H     0.445181      0.377741      0.191775 
 H171  H     0.384498     -0.474003      0.195413 
 H172  H     0.455563     -0.383981      0.200904 
 H173  H    -0.346747      0.489224      0.202801 
 N174  N    -0.482841      0.494476      0.191640 
 H175  H    -0.390551     -0.404693      0.206292 
 C176  C    -0.228232     -0.193756      0.053046 
 C177  C    -0.188771     -0.194898     -0.011751 
 C178  C    -0.216116     -0.254530     -0.066758 
 C179  C    -0.283551     -0.312049     -0.054465 
 C180  C    -0.322779     -0.311213      0.010387 
 C181  C    -0.295906     -0.251082      0.065202 
 O182  O    -0.176741     -0.258372     -0.130398 
 C183  C    -0.211705     -0.320461     -0.183402 
 C184  C    -0.164923     -0.323127     -0.251994 
 C185  C    -0.214662     -0.378514     -0.309995 
 C186  C    -0.166399     -0.395111     -0.378047 
 O187  O    -0.335626     -0.247336      0.128671 
 C188  C    -0.301710     -0.184929      0.181863 
 C189  C    -0.349121     -0.184028      0.250164 
 C190  C    -0.300669     -0.128765      0.308960 
 C191  C    -0.349366     -0.114575      0.377067 
 H192  H    -0.305305     -0.360516     -0.095438 
 H193  H    -0.205682     -0.146023      0.094340 
 H194  H    -0.233041     -0.199971      0.191902 
 H195  H    -0.306290     -0.119802      0.161561 
 H196  H    -0.207897     -0.385465     -0.162855 
 H197  H    -0.280167     -0.304380     -0.193213 
 H198  H    -0.414515     -0.157775      0.241896 
 H199  H    -0.357334     -0.250637      0.266263 
 H200  H    -0.155672     -0.256943     -0.268725 
 H201  H    -0.100020     -0.350515     -0.243814 
 H202  H    -0.231366     -0.441364     -0.290087 
 H203  H    -0.276710     -0.347007     -0.321869 
 H204  H    -0.237905     -0.158981      0.320468 
 H205  H    -0.285177     -0.065250      0.289801 
 H206  H    -0.309851     -0.077109      0.417260 
 H207  H    -0.409164     -0.078014      0.368683 
 H208  H    -0.366073     -0.176482      0.398549 
 H209  H    -0.206660     -0.433043     -0.417443 
 H210  H    -0.149209     -0.334089     -0.400696 
 H211  H    -0.106941     -0.432049     -0.369174 
 Cu212  Cu     0.006214      0.015445     -0.438578 
 Cu213  Cu     0.002879      0.001513      0.424748 
 O214  O    -0.095000      0.087795      0.435591 
 C215  C    -0.110706      0.128183      0.494117 
 O216  O    -0.077026      0.112153     -0.446427 
 O217  O     0.084958      0.102750      0.435727 
 C218  C     0.117791      0.131250      0.494837 
 O219  O     0.101366      0.101296     -0.446443 
 O220  O    -0.079966     -0.098064      0.429899 
 C221  C    -0.111435     -0.111821      0.488779 
 O222  O    -0.090287     -0.070376     -0.453212 
 O223  O     0.100331     -0.083086      0.435592 
 C224  C     0.120468     -0.111931      0.494953 
 O225  O     0.090145     -0.082933     -0.446975 
 Cu226  Cu    -0.489058     -0.487089     -0.421814 
 Cu227  Cu    -0.496615     -0.494544      0.441692 
 O228  O     0.415150     -0.401353      0.455081 
 C229  C     0.382943     -0.379910     -0.485802 
 O230  O     0.407225     -0.409705     -0.427677 
 O231  O    -0.403297     -0.406428      0.459011 
 C232  C    -0.382083     -0.366701     -0.482305 
 O233  O    -0.412881     -0.382446     -0.423571 
 O234  O     0.409234      0.419245      0.443491 
 C235  C     0.393368      0.388116     -0.498240 
 O236  O     0.433076      0.409261     -0.440091 
 O237  O    -0.409064      0.411376      0.446248 
 C238  C    -0.371599      0.395248     -0.495704 
 O239  O    -0.385786      0.433879     -0.436198 
 C240  C    -0.262907      0.174939      0.482306 
 C241  C    -0.176400      0.199283      0.493674 
 C242  C    -0.152311      0.286442     -0.491385 
 C243  C    -0.217121      0.350261     -0.487508 
 C244  C    -0.303967      0.325731     -0.498240 
 C245  C    -0.327795      0.238370      0.487585 
 O246  O    -0.065676      0.303827     -0.480905 
 C247  C    -0.037620      0.389279     -0.455613 
 C248  C     0.055017      0.383312     -0.426691 
 C249  C     0.090803      0.469840     -0.393484 
 C250  C     0.185614      0.465052     -0.368112 
 O251  O    -0.414120      0.218906      0.478762 
 C252  C    -0.440429      0.129705      0.478997 
 C253  C     0.462768      0.122693      0.463528 
 C254  C     0.427456      0.031265      0.472777 
 C255  C     0.332025      0.019407      0.450005 
 H256  H    -0.200386      0.418705     -0.477025 
 H257  H    -0.278744      0.106281      0.471273 
 H258  H    -0.406429      0.089937      0.438811 
 H259  H    -0.422934      0.105841     -0.469353 
 H260  H    -0.042129      0.432636     -0.499137 
 H261  H    -0.079745      0.415215     -0.414206 
 H262  H     0.428747      0.170361      0.497746 
 H263  H     0.448111      0.140497      0.409538 
 H264  H     0.058544      0.334218     -0.387352 
 H265  H     0.097596      0.359914     -0.468632 
 H266  H     0.084376     -0.480254     -0.431929 
 H267  H     0.051058      0.491402     -0.349014 
 H268  H     0.466552     -0.016520      0.442813 
 H269  H     0.436353      0.016308     -0.471937 
 H270  H     0.309817     -0.047039      0.456916 
 H271  H     0.290600      0.063719      0.480981 
 H272  H     0.320751      0.031869      0.394497 
 H273  H     0.208162     -0.472148     -0.343773 
 H274  H     0.195079      0.416236     -0.329225 
 H275  H     0.227913      0.447972     -0.411856 
 N276  N    -0.019846      0.010228     -0.188646 
 C277  C     0.035902     -0.058837     -0.219435 
 C278  C    -0.107419     -0.001865     -0.221063 
 C279  C     0.012349      0.095596     -0.208048 
 C280  C    -0.105488      0.005483     -0.302311 
 H281  H    -0.131619     -0.066215     -0.209075 
 H282  H    -0.151379      0.046554     -0.196666 
 C283  C     0.035912     -0.056465     -0.300796 
 H284  H     0.102114     -0.050690     -0.196803 
 H285  H     0.012415     -0.122349     -0.204811 
 C286  C     0.018777      0.097893     -0.289400 
 H287  H    -0.031740      0.146444     -0.187441 
 H288  H     0.075681      0.109379     -0.182035 
 H289  H     0.102609     -0.051142     -0.318079 
 H290  H     0.008708     -0.117057     -0.326112 
 H291  H    -0.133548     -0.053324     -0.329853 
 H292  H    -0.144749      0.060709     -0.318687 
 H293  H     0.086383      0.105822     -0.304017 
 N294  N    -0.015866      0.016874     -0.324975 
 H295  H    -0.016645      0.153587     -0.309172 
 C296  C     0.233282      0.219984     -0.441921 
 C297  C     0.181852      0.205188      0.496580 
 C298  C     0.196217      0.254729      0.438584 
 C299  C     0.266890      0.311708      0.440633 
 C300  C     0.320510      0.323276     -0.498907 
 C301  C     0.304691      0.275921     -0.440471 
 O302  O     0.146663      0.250761      0.377800 
 C303  C     0.061577      0.287433      0.383306 
 C304  C     0.028529      0.313307      0.311650 
 C305  C    -0.068981      0.332136      0.308389 
 C306  C    -0.103306      0.351159      0.234746 
 O307  O     0.357605      0.286926     -0.381916 
 C308  C     0.394101      0.210661     -0.353969 
 C309  C     0.488569      0.228131     -0.333369 
 C310  C    -0.461735      0.148297     -0.309857 
 C311  C    -0.364642      0.165423     -0.297791 
 H312  H     0.277703      0.348182      0.394744 
 H313  H     0.220318      0.186843     -0.394808 
 H314  H     0.357327      0.196227     -0.308009 
 H315  H     0.388420      0.155158     -0.392963 
 H316  H     0.018314      0.239515      0.404207 
 H317  H     0.064015      0.344924      0.420488 
 H318  H    -0.479111      0.254344     -0.377977 
 H319  H     0.492103      0.278982     -0.290340 
 H320  H     0.063791      0.371516      0.298181 
 H321  H     0.043448      0.262521      0.270845 
 H322  H    -0.104401      0.276348      0.326490 
 H323  H    -0.083011      0.387484      0.345537 
 H324  H    -0.488665      0.127508     -0.261102 
 H325  H    -0.471642      0.093744     -0.349387 
 H326  H    -0.330797      0.107349     -0.281052 
 H327  H    -0.335199      0.184263     -0.346061 
 H328  H    -0.352384      0.217989     -0.257031 
 H329  H    -0.172964      0.364864      0.234456 
 H330  H    -0.070644      0.407634      0.215342 
 H331  H    -0.093368      0.295638      0.196861 
 C332  C     0.227433     -0.195493     -0.436123 
 C333  C     0.184938     -0.185232      0.499009 
 C334  C     0.202524     -0.242484      0.441117 
 C335  C     0.265349     -0.307239      0.448689 
 C336  C     0.310344     -0.314867     -0.487066 
 C337  C     0.290711     -0.259774     -0.428306 
 O338  O     0.158274     -0.231375      0.379053 
 C339  C     0.151771     -0.300697      0.325306 
 C340  C     0.110217     -0.262365      0.261121 
 C341  C     0.103725     -0.325213      0.195720 
 C342  C     0.062094     -0.284832      0.131727 
 O343  O     0.333679     -0.270595     -0.365277 
 C344  C     0.334952     -0.200858     -0.311534 
 C345  C     0.379211     -0.230154     -0.244906 
 C346  C     0.375076     -0.164704     -0.180999 
 C347  C     0.411979     -0.200615     -0.113421 
 H348  H     0.280806     -0.351095      0.403814 
 H349  H     0.210948     -0.152832     -0.391035 
 H350  H     0.370538     -0.146385     -0.331355 
 H351  H     0.268885     -0.179765     -0.300054 
 H352  H     0.215624     -0.327236      0.312710 
 H353  H     0.112197     -0.353365      0.343848 
 H354  H     0.350212     -0.291985     -0.231911 
 H355  H     0.447656     -0.242704     -0.255109 
 H356  H     0.045488     -0.237934      0.273800 
 H357  H     0.148717     -0.205953      0.248526 
 H358  H     0.169037     -0.347161      0.182617 
 H359  H     0.067253     -0.383437      0.207332 
 H360  H     0.411089     -0.105672     -0.191257 
 H361  H     0.307732     -0.144651     -0.173029 
 H362  H     0.407902     -0.152666     -0.068550 
 H363  H     0.376340     -0.258574     -0.100655 
 H364  H     0.479997     -0.219479     -0.117994 
 H365  H     0.059366     -0.331341      0.085629 
 H366  H    -0.004110     -0.263062      0.141446 
 H367  H     0.098899     -0.228225      0.117554 
 N368  N     0.499140      0.499949     -0.172159 
 C369  C    -0.428351      0.448243     -0.200862 
 C370  C     0.417801      0.465602     -0.205907 
 C371  C    -0.490061     -0.409782     -0.192198 
 C372  C     0.420525      0.468724     -0.287305 
 H373  H     0.407921      0.398471     -0.191241 
 H374  H     0.363224     -0.495883     -0.185250 
 C375  C    -0.424876      0.453830     -0.282095 
 H376  H    -0.367596      0.472563     -0.174864 
 H377  H    -0.435932      0.380235     -0.187573 
 C378  C    -0.488989     -0.406139     -0.273761 
 H379  H     0.457249     -0.370011     -0.170087 
 H380  H    -0.429338     -0.382965     -0.168076 
 H381  H    -0.363799      0.483972     -0.295989 
 H382  H    -0.426868      0.388795     -0.309400 
 H383  H     0.413506      0.402994     -0.312311 
 H384  H     0.366324     -0.492822     -0.307635 
 H385  H    -0.428866     -0.375612     -0.289353 
 N386  N    -0.497155     -0.493774     -0.308499 
 H387  H     0.457254     -0.367246     -0.293656 
 C388  C    -0.234900     -0.167384     -0.449834 
 C389  C    -0.180811     -0.179555      0.493077 
 C390  C    -0.192817     -0.251995      0.445082 
 C391  C    -0.258425     -0.311553      0.457356 
 C392  C    -0.312530     -0.299195     -0.485810 
 C393  C    -0.300639     -0.226952     -0.437838 
 O394  O    -0.142160     -0.265858      0.387550 
 C395  C    -0.170692     -0.333673      0.336422 
 C396  C    -0.123877     -0.335741      0.267830 
 C397  C    -0.169398     -0.397324      0.211430 
 C398  C    -0.127259     -0.403679      0.139989 
 O399  O    -0.352887     -0.214317     -0.381303 
 C400  C    -0.326106     -0.148847     -0.327844 
 C401  C    -0.377919     -0.151671     -0.261937 
 C402  C    -0.337053     -0.094193     -0.200652 
 C403  C    -0.384340     -0.095842     -0.131754 
 H404  H    -0.267922     -0.369899      0.422396 
 H405  H    -0.226366     -0.109301     -0.414614 
 H406  H    -0.257252     -0.158903     -0.314352 
 H407  H    -0.333493     -0.084553     -0.349226 
 H408  H    -0.161637     -0.396585      0.359822 
 H409  H    -0.240171     -0.324507      0.324902 
 H410  H    -0.444630     -0.130425     -0.272941 
 H411  H    -0.382351     -0.219013     -0.246656 
 H412  H    -0.120519     -0.269969      0.249022 
 H413  H    -0.056804     -0.356974      0.276824 
 H414  H    -0.173266     -0.462666      0.230983 
 H415  H    -0.236627     -0.375864      0.203663 
 H416  H    -0.269940     -0.115085     -0.191104 
 H417  H    -0.333244     -0.026746     -0.215788 
 H418  H    -0.351320     -0.054268     -0.090191 
 H419  H    -0.450979     -0.072323     -0.137333 
 H420  H    -0.386192     -0.161758     -0.113351 
 H421  H    -0.163729     -0.448279      0.102657 
 H422  H    -0.125920     -0.340323      0.116987 
 H423  H    -0.060786     -0.428123      0.143846 
loop_  
_geom_bond_atom_site_label_1  
_geom_bond_atom_site_label_2  
Cu0   Cu1 
Cu0   O4 
Cu0   O7 
Cu0   O10 
Cu0   O13 
Cu0   N82 
Cu1   O2 
Cu1   O5 
Cu1   O8 
Cu1   O11 
Cu1   N276 
O2   C3 
C3   O4 
C3   C29 
O5   C6 
C6   O7 
C6   C85 
O8   C9 
C9   O10 
C9   C177 
O11   C12 
C12   O13 
C12   C124 
Cu14   Cu15 
Cu14   O18 
Cu14   O21 
Cu14   O24 
Cu14   O27 
Cu14   N174 
Cu15   O16 
Cu15   O19 
Cu15   O22 
Cu15   O25 
Cu15   N368 
O16   C17 
C17   O18 
C17   C121 
O19   C20 
C20   O21 
C20   C180 
O22   C23 
C23   O24 
C23   C88 
O25   C26 
C26   O27 
C26   C32 
C28   C29 
C28   C33 
C28   H45 
C29   C30 
C30   C31 
C30   O34 
C31   C32 
C31   H44 
C32   C33 
C33   O39 
O34   C35 
C35   C36 
C35   H48 
C35   H49 
C36   C37 
C36   H52 
C36   H53 
C37   C38 
C37   H54 
C37   H55 
C38   H61 
C38   H62 
C38   H63 
O39   C40 
C40   C41 
C40   H46 
C40   H47 
C41   C42 
C41   H50 
C41   H51 
C42   C43 
C42   H56 
C42   H57 
C43   H58 
C43   H59 
C43   H60 
N64   C65 
N64   C66 
N64   C67 
N64   Cu213 
C65   C71 
C65   H72 
C65   H73 
C66   C68 
C66   H69 
C66   H70 
C67   C74 
C67   H75 
C67   H76 
C68   H79 
C68   H80 
C68   N82 
C71   H77 
C71   H78 
C71   N82 
C74   H81 
C74   N82 
C74   H83 
C84   C85 
C84   C89 
C84   H101 
C85   C86 
C86   C87 
C86   O90 
C87   C88 
C87   H100 
C88   C89 
C89   O95 
O90   C91 
C91   C92 
C91   H104 
C91   H105 
C92   C93 
C92   H108 
C92   H109 
C93   C94 
C93   H110 
C93   H111 
C94   H117 
C94   H118 
C94   H119 
O95   C96 
C96   C97 
C96   H102 
C96   H103 
C97   C98 
C97   H106 
C97   H107 
C98   C99 
C98   H112 
C98   H113 
C99   H114 
C99   H115 
C99   H116 
C120   C121 
C120   C125 
C120   H137 
C121   C122 
C122   C123 
C122   O126 
C123   C124 
C123   H136 
C124   C125 
C125   O131 
O126   C127 
C127   C128 
C127   H140 
C127   H141 
C128   C129 
C128   H144 
C128   H145 
C129   C130 
C129   H146 
C129   H147 
C130   H153 
C130   H154 
C130   H155 
O131   C132 
C132   C133 
C132   H138 
C132   H139 
C133   C134 
C133   H142 
C133   H143 
C134   C135 
C134   H148 
C134   H149 
C135   H150 
C135   H151 
C135   H152 
N156   C157 
N156   C158 
N156   C159 
N156   Cu227 
C157   C163 
C157   H164 
C157   H165 
C158   C160 
C158   H161 
C158   H162 
C159   C166 
C159   H167 
C159   H168 
C160   H171 
C160   H172 
C160   N174 
C163   H169 
C163   H170 
C163   N174 
C166   H173 
C166   N174 
C166   H175 
C176   C177 
C176   C181 
C176   H193 
C177   C178 
C178   C179 
C178   O182 
C179   C180 
C179   H192 
C180   C181 
C181   O187 
O182   C183 
C183   C184 
C183   H196 
C183   H197 
C184   C185 
C184   H200 
C184   H201 
C185   C186 
C185   H202 
C185   H203 
C186   H209 
C186   H210 
C186   H211 
O187   C188 
C188   C189 
C188   H194 
C188   H195 
C189   C190 
C189   H198 
C189   H199 
C190   C191 
C190   H204 
C190   H205 
C191   H206 
C191   H207 
C191   H208 
Cu212   Cu213 
Cu212   O216 
Cu212   O219 
Cu212   O222 
Cu212   O225 
Cu212   N294 
Cu213   O214 
Cu213   O217 
Cu213   O220 
Cu213   O223 
O214   C215 
C215   O216 
C215   C241 
O217   C218 
C218   O219 
C218   C297 
O220   C221 
C221   O222 
C221   C389 
O223   C224 
C224   O225 
C224   C333 
Cu226   Cu227 
Cu226   O230 
Cu226   O233 
Cu226   O236 
Cu226   O239 
Cu226   N386 
Cu227   O228 
Cu227   O231 
Cu227   O234 
Cu227   O237 
O228   C229 
C229   O230 
C229   C336 
O231   C232 
C232   O233 
C232   C392 
O234   C235 
C235   O236 
C235   C300 
O237   C238 
C238   O239 
C238   C244 
C240   C241 
C240   C245 
C240   H257 
C241   C242 
C242   C243 
C242   O246 
C243   C244 
C243   H256 
C244   C245 
C245   O251 
O246   C247 
C247   C248 
C247   H260 
C247   H261 
C248   C249 
C248   H264 
C248   H265 
C249   C250 
C249   H266 
C249   H267 
C250   H273 
C250   H274 
C250   H275 
O251   C252 
C252   C253 
C252   H258 
C252   H259 
C253   C254 
C253   H262 
C253   H263 
C254   C255 
C254   H268 
C254   H269 
C255   H270 
C255   H271 
C255   H272 
N276   C277 
N276   C278 
N276   C279 
C277   C283 
C277   H284 
C277   H285 
C278   C280 
C278   H281 
C278   H282 
C279   C286 
C279   H287 
C279   H288 
C280   H291 
C280   H292 
C280   N294 
C283   H289 
C283   H290 
C283   N294 
C286   H293 
C286   N294 
C286   H295 
C296   C297 
C296   C301 
C296   H313 
C297   C298 
C298   C299 
C298   O302 
C299   C300 
C299   H312 
C300   C301 
C301   O307 
O302   C303 
C303   C304 
C303   H316 
C303   H317 
C304   C305 
C304   H320 
C304   H321 
C305   C306 
C305   H322 
C305   H323 
C306   H329 
C306   H330 
C306   H331 
O307   C308 
C308   C309 
C308   H314 
C308   H315 
C309   C310 
C309   H318 
C309   H319 
C310   C311 
C310   H324 
C310   H325 
C311   H326 
C311   H327 
C311   H328 
C332   C333 
C332   C337 
C332   H349 
C333   C334 
C334   C335 
C334   O338 
C335   C336 
C335   H348 
C336   C337 
C337   O343 
O338   C339 
C339   C340 
C339   H352 
C339   H353 
C340   C341 
C340   H356 
C340   H357 
C341   C342 
C341   H358 
C341   H359 
C342   H365 
C342   H366 
C342   H367 
O343   C344 
C344   C345 
C344   H350 
C344   H351 
C345   C346 
C345   H354 
C345   H355 
C346   C347 
C346   H360 
C346   H361 
C347   H362 
C347   H363 
C347   H364 
N368   C369 
N368   C370 
N368   C371 
C369   C375 
C369   H376 
C369   H377 
C370   C372 
C370   H373 
C370   H374 
C371   C378 
C371   H379 
C371   H380 
C372   H383 
C372   H384 
C372   N386 
C375   H381 
C375   H382 
C375   N386 
C378   H385 
C378   N386 
C378   H387 
C388   C389 
C388   C393 
C388   H405 
C389   C390 
C390   C391 
C390   O394 
C391   C392 
C391   H404 
C392   C393 
C393   O399 
O394   C395 
C395   C396 
C395   H408 
C395   H409 
C396   C397 
C396   H412 
C396   H413 
C397   C398 
C397   H414 
C397   H415 
C398   H421 
C398   H422 
C398   H423 
O399   C400 
C400   C401 
C400   H406 
C400   H407 
C401   C402 
C401   H410 
C401   H411 
C402   C403 
C402   H416 
C402   H417 
C403   H418 
C403   H419 
C403   H420 
  
#END  
