data_
_symmetry_cell_setting           triclinic 
_symmetry_space_group_name_H-M   'P 1' 
_symmetry_Int_Tables_number      1 
loop_ 
_symmetry_equiv_pos_site_id 
_symmetry_equiv_pos_as_xyz 
1 x,y,z 
_cell_length_a             15.739706        
_cell_length_b             15.091960        
_cell_length_c             19.039267        
_cell_angle_alpha          89.920989        
_cell_angle_beta           88.198934        
_cell_angle_gamma          90.207275        
loop_  
_atom_site_label   
_atom_site_type_symbol  
_atom_site_fract_x  
_atom_site_fract_y  
_atom_site_fract_z 
 Cu0  Cu    -0.000824     -0.001483      0.068340 
 Cu1  Cu    -0.001719      0.000556     -0.068133 
 O2  O    -0.079843      0.102448     -0.053142 
 C3  C    -0.115199      0.120141      0.006304 
 O4  O    -0.095531      0.085290      0.064490 
 O5  O     0.096671      0.083236     -0.062098 
 C6  C     0.117488      0.116552     -0.003655 
 O7  O     0.085158      0.095131      0.056324 
 O8  O    -0.102747     -0.077494     -0.056165 
 C9  C    -0.121024     -0.114329      0.002569 
 O10  O    -0.084333     -0.100203      0.060211 
 O11  O     0.076574     -0.103781     -0.062623 
 C12  C     0.111995     -0.122298     -0.005160 
 O13  O     0.092836     -0.087697      0.054260 
 Cu14  Cu    -0.498765     -0.499228      0.069020 
 Cu15  Cu    -0.499365     -0.497403     -0.067442 
 O16  O     0.406843     -0.411177     -0.053269 
 C17  C     0.387587     -0.376552      0.006133 
 O18  O     0.422858     -0.395096      0.063652 
 O19  O    -0.415835     -0.398717     -0.059324 
 C20  C    -0.379285     -0.384454     -0.001639 
 O21  O    -0.397738     -0.421107      0.057141 
 O22  O     0.414639      0.405981     -0.055183 
 C23  C     0.382169      0.384706      0.004777 
 O24  O     0.402946      0.418060      0.063215 
 O25  O    -0.404558      0.415995     -0.063254 
 C26  C    -0.384812      0.381378     -0.005000 
 O27  O    -0.420417      0.398964      0.054370 
 C28  C    -0.211001      0.216691     -0.060250 
 C29  C    -0.185877      0.186874      0.005655 
 C30  C    -0.225918      0.220424      0.067061 
 C31  C    -0.288558      0.285370      0.061745 
 C32  C    -0.313722      0.315122     -0.004176 
 C33  C    -0.273477      0.281789     -0.065552 
 O34  O    -0.204966      0.195836      0.133310 
 C35  C    -0.264220      0.136249      0.167818 
 C36  C    -0.263582      0.149994      0.247013 
 C37  C    -0.309688      0.075435      0.288283 
 C38  C    -0.305360      0.085315      0.368232 
 O39  O    -0.294334      0.306576     -0.131766 
 C40  C    -0.234076      0.364615     -0.166799 
 C41  C    -0.234513      0.349279     -0.245810 
 C42  C    -0.187049      0.422189     -0.287920 
 C43  C    -0.191270      0.410673     -0.367739 
 H44  H    -0.317446      0.311080      0.110354 
 H45  H    -0.182237      0.190888     -0.108876 
 H46  H    -0.252423      0.433128     -0.153467 
 H47  H    -0.169715      0.353749     -0.147434 
 H48  H    -0.328819      0.146670      0.148820 
 H49  H    -0.245075      0.068264      0.153536 
 H50  H    -0.205494      0.284539     -0.258037 
 H51  H    -0.300253      0.344532     -0.263353 
 H52  H    -0.197802      0.155455      0.264361 
 H53  H    -0.293553      0.213974      0.260212 
 H54  H    -0.376666      0.072934      0.273302 
 H55  H    -0.281969      0.011203      0.272756 
 H56  H    -0.213743      0.487217     -0.273341 
 H57  H    -0.120106      0.423819     -0.272787 
 H58  H    -0.155715      0.463329     -0.395865 
 H59  H    -0.164466      0.346851     -0.384931 
 H60  H    -0.257242      0.413301     -0.384911 
 H61  H    -0.339538      0.031175      0.395672 
 H62  H    -0.239266      0.083819      0.385187 
 H63  H    -0.333512      0.148072      0.386446 
 N64  N     0.006299     -0.006230      0.318354 
 C65  C    -0.044016     -0.081718      0.292302 
 C66  C    -0.032151      0.076228      0.292701 
 C67  C     0.093824     -0.012393      0.287942 
 C68  C    -0.031520      0.077737      0.210790 
 H69  H    -0.097832      0.080397      0.314143 
 H70  H     0.002551      0.133473      0.313480 
 C71  C    -0.045878     -0.080404      0.210394 
 H72  H    -0.016544     -0.143980      0.311488 
 H73  H    -0.109339     -0.077941      0.314767 
 C74  C     0.092651     -0.013638      0.205964 
 H75  H     0.131341      0.044458      0.306216 
 H76  H     0.124479     -0.072482      0.308028 
 H77  H    -0.020529     -0.142727      0.188179 
 H78  H    -0.111856     -0.074443      0.193084 
 H79  H    -0.096621      0.085381      0.192430 
 H80  H     0.005606      0.134452      0.189835 
 H81  H     0.119909     -0.075979      0.185501 
 N82  N     0.004645     -0.005093      0.181659 
 H83  H     0.131958      0.040622      0.183450 
 C84  C     0.229337      0.197630      0.059027 
 C85  C     0.186422      0.185911     -0.003645 
 C86  C     0.206231      0.239250     -0.062591 
 C87  C     0.270039      0.303937     -0.057826 
 C88  C     0.313076      0.315533      0.004809 
 C89  C     0.293297      0.262168      0.063752 
 O90  O     0.162102      0.227502     -0.122915 
 C91  C     0.162093      0.297505     -0.174128 
 C92  C     0.098499      0.273210     -0.229525 
 C93  C     0.094780      0.340082     -0.290248 
 C94  C     0.034704      0.310942     -0.347807 
 O95  O     0.337539      0.273621      0.124067 
 C96  C     0.337604      0.203109      0.174842 
 C97  C     0.401502      0.226059      0.230345 
 C98  C     0.404043      0.158426      0.290616 
 C99  C     0.464250      0.185678      0.348621 
 H100  H     0.286650      0.345211     -0.103351 
 H101  H     0.212620      0.156392      0.104552 
 H102  H     0.273568      0.195775      0.199048 
 H103  H     0.354663      0.140353      0.148486 
 H104  H     0.144517      0.360428     -0.148259 
 H105  H     0.226212      0.304993     -0.198187 
 H106  H     0.465288      0.231550      0.205144 
 H107  H     0.386534      0.291763      0.252319 
 H108  H     0.114264      0.207492     -0.251100 
 H109  H     0.034837      0.267074     -0.204202 
 H110  H     0.074372      0.404909     -0.269433 
 H111  H     0.158997      0.350159     -0.313663 
 H112  H     0.339587      0.149149      0.313769 
 H113  H     0.423495      0.093503      0.269377 
 H114  H     0.444878      0.248685      0.373070 
 H115  H     0.464817      0.135560      0.390484 
 H116  H    -0.470181      0.193863      0.328057 
 H117  H     0.032108      0.360835     -0.389719 
 H118  H     0.055507      0.248477     -0.372374 
 H119  H    -0.030400      0.300849     -0.326744 
 C120  C     0.232685     -0.190150      0.055122 
 C121  C     0.183349     -0.188544     -0.004912 
 C122  C     0.200309     -0.247815     -0.060423 
 C123  C     0.266954     -0.308632     -0.054166 
 C124  C     0.316262     -0.310281      0.005906 
 C125  C     0.299217     -0.251092      0.061503 
 O126  O     0.151204     -0.245296     -0.118748 
 C127  C     0.166646     -0.308397     -0.174115 
 C128  C     0.106665     -0.289081     -0.233273 
 C129  C     0.118397     -0.351294     -0.296682 
 C130  C     0.058496     -0.330220     -0.356439 
 O131  O     0.347982     -0.253513      0.120088 
 C132  C     0.331445     -0.190661      0.175503 
 C133  C     0.390661     -0.208836      0.235439 
 C134  C     0.376987     -0.146145      0.298371 
 C135  C     0.436479     -0.164927      0.358896 
 H136  H     0.280446     -0.355490     -0.096610 
 H137  H     0.219207     -0.143130      0.097454 
 H138  H     0.341736     -0.123085      0.154792 
 H139  H     0.264769     -0.196881      0.194285 
 H140  H     0.233152     -0.302901     -0.193479 
 H141  H     0.155928     -0.375875     -0.153339 
 H142  H     0.381475     -0.277700      0.253377 
 H143  H     0.457106     -0.203458      0.215825 
 H144  H     0.040480     -0.293768     -0.212912 
 H145  H     0.116346     -0.220172     -0.250946 
 H146  H     0.184658     -0.347540     -0.316919 
 H147  H     0.108121     -0.420304     -0.279474 
 H148  H     0.386049     -0.077150      0.280709 
 H149  H     0.310574     -0.151109      0.318076 
 H150  H     0.424446     -0.119031      0.402847 
 H151  H     0.427586     -0.232519      0.379497 
 H152  H    -0.496392     -0.157669      0.342088 
 H153  H     0.069082     -0.375489     -0.400966 
 H154  H    -0.008565     -0.336321     -0.339129 
 H155  H     0.068464     -0.262507     -0.376440 
 N156  N    -0.496124     -0.493586      0.318990 
 C157  C    -0.443138      0.433611      0.289805 
 C158  C     0.416255      0.494883      0.294350 
 C159  C    -0.462658     -0.408746      0.290433 
 C160  C     0.415493      0.496109      0.212373 
 H161  H     0.390091      0.431813      0.314897 
 H162  H     0.375633     -0.451993      0.316413 
 C163  C    -0.444341      0.433297      0.207861 
 H164  H    -0.377586      0.441737      0.307622 
 H165  H    -0.466849      0.369935      0.311217 
 C166  C    -0.461804     -0.409245      0.208354 
 H167  H     0.497928     -0.354213      0.311675 
 H168  H    -0.398059     -0.397781      0.309277 
 H169  H    -0.379260      0.440365      0.185281 
 H170  H    -0.469545      0.369937      0.188496 
 H171  H     0.387413      0.434317      0.192689 
 H172  H     0.375737     -0.449184      0.193675 
 H173  H    -0.396278     -0.401140      0.187065 
 N174  N    -0.497194     -0.493398      0.182114 
 H175  H    -0.498731     -0.353546      0.187831 
 C176  C    -0.165651     -0.270578      0.015811 
 C177  C    -0.189407     -0.183034      0.003354 
 C178  C    -0.273652     -0.160610     -0.010260 
 C179  C    -0.334642     -0.228222     -0.014754 
 C180  C    -0.310859     -0.315790     -0.002416 
 C181  C    -0.226583     -0.338230      0.011127 
 O182  O    -0.293581     -0.073031     -0.017808 
 C183  C    -0.380914     -0.049527     -0.005612 
 C184  C    -0.386471      0.049297      0.007822 
 C185  C    -0.476859      0.078771      0.028994 
 C186  C    -0.485563      0.179397      0.035078 
 O187  O    -0.206579     -0.425822      0.018548 
 C188  C    -0.119030     -0.449108      0.007293 
 C189  C    -0.112935      0.452081     -0.006025 
 C190  C    -0.022119      0.422829     -0.025981 
 C191  C    -0.013143      0.322242     -0.032146 
 H192  H    -0.400719     -0.213407     -0.026249 
 H193  H    -0.099568     -0.285328      0.027339 
 H194  H    -0.092032     -0.412296     -0.038288 
 H195  H    -0.083550     -0.430703      0.054103 
 H196  H    -0.417204     -0.067795     -0.052017 
 H197  H    -0.407302     -0.086316      0.040210 
 H198  H    -0.136299      0.415162      0.040644 
 H199  H    -0.155575      0.434098     -0.048416 
 H200  H    -0.342926      0.067129      0.049610 
 H201  H    -0.363901      0.086176     -0.039125 
 H202  H     0.478488      0.053690     -0.009684 
 H203  H    -0.496127      0.047817      0.079458 
 H204  H    -0.001887      0.453961     -0.076142 
 H205  H     0.021708      0.447824      0.013376 
 H206  H     0.053156      0.303800     -0.043124 
 H207  H    -0.033456      0.288740      0.016859 
 H208  H    -0.051029      0.295436     -0.074719 
 H209  H     0.448341      0.198069      0.046738 
 H210  H    -0.446919      0.206229      0.077156 
 H211  H    -0.465958      0.212702     -0.014192 
 Cu212  Cu    -0.001862     -0.000283     -0.432434 
 Cu213  Cu     0.002445     -0.001094      0.430979 
 O214  O    -0.074795      0.102921      0.441533 
 C215  C    -0.109049      0.125344     -0.499751 
 O216  O    -0.090931      0.092615     -0.440348 
 O217  O     0.099816      0.081707      0.436249 
 C218  C     0.120002      0.114142      0.495108 
 O219  O     0.088097      0.091395     -0.445132 
 O220  O    -0.095632     -0.083679      0.442785 
 C221  C    -0.121095     -0.113632     -0.497599 
 O222  O    -0.091504     -0.091534     -0.438674 
 O223  O     0.079962     -0.104447      0.437502 
 C224  C     0.110985     -0.125612      0.496133 
 O225  O     0.088204     -0.092953     -0.444437 
 Cu226  Cu     0.499541      0.499010     -0.430458 
 Cu227  Cu    -0.497930      0.498756      0.432952 
 O228  O     0.409828     -0.411392      0.445698 
 C229  C     0.387766     -0.378498     -0.494796 
 O230  O     0.419816     -0.399191     -0.436455 
 O231  O    -0.411043     -0.407184      0.438666 
 C232  C    -0.380848     -0.384755      0.497290 
 O233  O    -0.404350     -0.415963     -0.442992 
 O234  O     0.415005      0.404253      0.446593 
 C235  C     0.383322      0.381695     -0.493521 
 O236  O     0.403788      0.414211     -0.434786 
 O237  O    -0.406123      0.408713      0.439311 
 C238  C    -0.387521      0.375147      0.498273 
 O239  O    -0.421692      0.396144     -0.442631 
 C240  C    -0.252000      0.316359      0.446971 
 C241  C    -0.317992      0.307268      0.497474 
 C242  C    -0.316280      0.238700     -0.452626 
 C243  C    -0.244746      0.184257     -0.449370 
 C244  C    -0.178756      0.193048      0.499968 
 C245  C    -0.181124      0.260309      0.448835 
 O246  O    -0.383153      0.222781     -0.406867 
 C247  C    -0.452837      0.175991     -0.437283 
 C248  C    -0.439868      0.076275     -0.428817 
 C249  C    -0.498421      0.017764     -0.472629 
 C250  C     0.406295      0.030639     -0.456878 
 O251  O    -0.116345      0.268086      0.399516 
 C252  C    -0.080967      0.354752      0.386603 
 C253  C    -0.015492      0.375244      0.441576 
 C254  C     0.028247      0.465721      0.430566 
 C255  C     0.098118      0.484043      0.483063 
 H256  H    -0.243942      0.132346     -0.409449 
 H257  H    -0.255178      0.367639      0.406648 
 H258  H    -0.051531      0.354330      0.333417 
 H259  H    -0.130550      0.405886      0.386959 
 H260  H     0.488191      0.198077     -0.410263 
 H261  H    -0.457629      0.194216     -0.493110 
 H262  H    -0.046407      0.373232      0.494299 
 H263  H     0.032781      0.322517      0.441041 
 H264  H    -0.373695      0.059389     -0.443655 
 H265  H    -0.448172      0.058705     -0.372854 
 H266  H    -0.484446      0.030057      0.471176 
 H267  H    -0.482125     -0.052213     -0.463769 
 H268  H     0.055533      0.469662      0.376696 
 H269  H    -0.019896     -0.481602      0.434785 
 H270  H     0.127773     -0.450777      0.473723 
 H271  H     0.072404      0.483396     -0.462625 
 H272  H     0.148633      0.434025      0.479307 
 H273  H     0.368140     -0.014352     -0.488677 
 H274  H     0.389940      0.017100     -0.401391 
 H275  H     0.386373      0.098542     -0.468910 
 N276  N    -0.005830     -0.005542     -0.181355 
 C277  C    -0.042026     -0.089406     -0.207417 
 C278  C    -0.057906      0.068127     -0.207524 
 C279  C     0.081682      0.003860     -0.211433 
 C280  C    -0.059036      0.067191     -0.289514 
 H281  H    -0.123043      0.061973     -0.184890 
 H282  H    -0.032052      0.131320     -0.188432 
 C283  C    -0.040440     -0.090532     -0.289519 
 H284  H    -0.006074     -0.145481     -0.186352 
 H285  H    -0.107846     -0.096361     -0.186502 
 C286  C     0.081215      0.005097     -0.293404 
 H287  H     0.110476      0.065270     -0.191710 
 H288  H     0.120722     -0.051389     -0.192692 
 H289  H    -0.000978     -0.145336     -0.310185 
 H290  H    -0.104855     -0.101503     -0.308783 
 H291  H    -0.124565      0.059259     -0.307465 
 H292  H    -0.034994      0.130563     -0.311220 
 H293  H     0.121818     -0.048102     -0.315386 
 N294  N    -0.006345     -0.006066     -0.318307 
 H295  H     0.107617      0.068141     -0.313789 
 C296  C     0.227760      0.197325     -0.440117 
 C297  C     0.187694      0.184307      0.496114 
 C298  C     0.210441      0.235585      0.436801 
 C299  C     0.275383      0.298744      0.442108 
 C300  C     0.315573      0.311631     -0.494205 
 C301  C     0.292850      0.260409     -0.434846 
 O302  O     0.168724      0.223784      0.375378 
 C303  C     0.177055      0.291535      0.322649 
 C304  C     0.115780      0.271212      0.264847 
 C305  C     0.115510      0.342180      0.207118 
 C306  C     0.054634      0.320013      0.148472 
 O307  O     0.335007      0.272229     -0.373607 
 C308  C     0.324429      0.206469     -0.319497 
 C309  C     0.386456      0.225938     -0.262043 
 C310  C     0.382355      0.157790     -0.202197 
 C311  C     0.441981      0.180525     -0.142821 
 H312  H     0.294518      0.338817      0.396502 
 H313  H     0.208513      0.157336     -0.394490 
 H314  H     0.258642      0.208213     -0.298207 
 H315  H     0.336384      0.140233     -0.341778 
 H316  H     0.162777      0.356493      0.346500 
 H317  H     0.242780      0.293014      0.301182 
 H318  H     0.451639      0.227400     -0.284846 
 H319  H     0.373870      0.292441     -0.240520 
 H320  H     0.131472      0.206498      0.241294 
 H321  H     0.051163      0.264867      0.288073 
 H322  H     0.097736      0.406414      0.230558 
 H323  H     0.180254      0.350697      0.184379 
 H324  H     0.316735      0.152652     -0.180696 
 H325  H     0.398576      0.091873     -0.223292 
 H326  H     0.437967      0.129875     -0.101456 
 H327  H    -0.491510      0.184986     -0.161841 
 H328  H     0.425589      0.244348     -0.118380 
 H329  H     0.054987      0.372938      0.108900 
 H330  H     0.072741      0.258334      0.121418 
 H331  H    -0.010992      0.311675      0.168883 
 C332  C     0.231866     -0.193850     -0.443687 
 C333  C     0.182004     -0.192207      0.496632 
 C334  C     0.198942     -0.250688      0.440469 
 C335  C     0.266751     -0.310373      0.445297 
 C336  C     0.316626     -0.312033     -0.495033 
 C337  C     0.299694     -0.253555     -0.438868 
 O338  O     0.148598     -0.248444      0.382837 
 C339  C     0.163904     -0.310447      0.326676 
 C340  C     0.103482     -0.290231      0.267951 
 C341  C     0.115709     -0.350724      0.203541 
 C342  C     0.059706     -0.325095      0.142267 
 O343  O     0.350035     -0.255895     -0.381240 
 C344  C     0.335273     -0.193290     -0.325427 
 C345  C     0.396152     -0.212786     -0.266882 
 C346  C     0.384528     -0.151342     -0.202981 
 C347  C     0.441417     -0.175756     -0.141973 
 H348  H     0.280442     -0.356709      0.402496 
 H349  H     0.218106     -0.147494     -0.400902 
 H350  H     0.345386     -0.125669     -0.346017 
 H351  H     0.269043     -0.199150     -0.305455 
 H352  H     0.230267     -0.304259      0.307093 
 H353  H     0.153716     -0.378344      0.346703 
 H354  H     0.387093     -0.281874     -0.249579 
 H355  H     0.462129     -0.207552     -0.287651 
 H356  H     0.037353     -0.295796      0.288305 
 H357  H     0.112601     -0.220886      0.251328 
 H358  H     0.182869     -0.349133      0.185418 
 H359  H     0.102114     -0.419788      0.219033 
 H360  H     0.397700     -0.082474     -0.219262 
 H361  H     0.317584     -0.152902     -0.184277 
 H362  H     0.431247     -0.130384     -0.097399 
 H363  H     0.427960     -0.243202     -0.122691 
 H364  H    -0.490908     -0.172821     -0.157776 
 H365  H     0.070265     -0.369807      0.097323 
 H366  H    -0.008156     -0.327917      0.157447 
 H367  H     0.073679     -0.257422      0.123748 
 N368  N     0.496450     -0.495971     -0.180962 
 C369  C    -0.466612      0.421357     -0.209744 
 C370  C     0.408380     -0.488469     -0.205324 
 C371  C    -0.453611     -0.420429     -0.210014 
 C372  C     0.407329     -0.489356     -0.287308 
 H373  H     0.369832      0.456530     -0.183082 
 H374  H     0.380167     -0.426694     -0.184631 
 C375  C    -0.466869      0.421754     -0.291680 
 H376  H    -0.401178      0.415170     -0.191816 
 H377  H     0.497440      0.364282     -0.188008 
 C378  C    -0.454760     -0.420219     -0.291964 
 H379  H    -0.479929     -0.358175     -0.188461 
 H380  H    -0.387744     -0.425228     -0.192230 
 H381  H    -0.401488      0.416710     -0.313651 
 H382  H     0.497715      0.364497     -0.311675 
 H383  H     0.369444      0.454188     -0.305805 
 H384  H     0.377111     -0.428933     -0.307219 
 H385  H    -0.389295     -0.424640     -0.314058 
 N386  N     0.494858     -0.495854     -0.317679 
 H387  H    -0.481751     -0.358058     -0.311818 
 C388  C    -0.193320     -0.237351      0.442819 
 C389  C    -0.190198     -0.182199     -0.498239 
 C390  C    -0.249255     -0.191421     -0.441830 
 C391  C    -0.310399     -0.259114     -0.443919 
 C392  C    -0.313264     -0.314525      0.497274 
 C393  C    -0.254689     -0.304760      0.440583 
 O394  O    -0.245066     -0.132719     -0.387219 
 C395  C    -0.313480     -0.128697     -0.335875 
 C396  C    -0.297841     -0.047920     -0.290313 
 C397  C    -0.367492     -0.032204     -0.233593 
 C398  C    -0.352528      0.051913     -0.190691 
 O399  O    -0.259691     -0.362386      0.385348 
 C400  C    -0.189819     -0.369341      0.335610 
 C401  C    -0.208949     -0.447452      0.288165 
 C402  C    -0.135914     -0.471109      0.236417 
 C403  C    -0.155704      0.447809      0.191327 
 H404  H    -0.356351     -0.268131     -0.400311 
 H405  H    -0.147197     -0.228607      0.399309 
 H406  H    -0.183625     -0.307562      0.304903 
 H407  H    -0.130514     -0.379931      0.363714 
 H408  H    -0.374487     -0.122938     -0.362394 
 H409  H    -0.314589     -0.189857     -0.304146 
 H410  H    -0.225095      0.494241      0.320856 
 H411  H    -0.265894     -0.432709      0.258196 
 H412  H    -0.236529     -0.055074     -0.264695 
 H413  H    -0.291818      0.011261     -0.324098 
 H414  H    -0.429740     -0.028137     -0.258221 
 H415  H    -0.370793     -0.089750     -0.197984 
 H416  H    -0.122225     -0.413917      0.201882 
 H417  H    -0.077691     -0.483288      0.265497 
 H418  H    -0.101981      0.432557      0.155246 
 H419  H    -0.168405      0.388633      0.223785 
 H420  H    -0.211637      0.459155      0.159339 
 H421  H    -0.404073      0.061443     -0.151268 
 H422  H    -0.292563      0.048446     -0.162699 
 H423  H    -0.349906      0.111232     -0.224305 
loop_  
_geom_bond_atom_site_label_1  
_geom_bond_atom_site_label_2  
Cu0   Cu1 
Cu0   O4 
Cu0   O7 
Cu0   O10 
Cu0   O13 
Cu0   N82 
Cu1   O2 
Cu1   O5 
Cu1   O8 
Cu1   O11 
Cu1   N276 
O2   C3 
C3   O4 
C3   C29 
O5   C6 
C6   O7 
C6   C85 
O8   C9 
C9   O10 
C9   C177 
O11   C12 
C12   O13 
C12   C121 
Cu14   Cu15 
Cu14   O18 
Cu14   O21 
Cu14   O24 
Cu14   O27 
Cu14   N174 
Cu15   O16 
Cu15   O19 
Cu15   O22 
Cu15   O25 
Cu15   N368 
O16   C17 
C17   O18 
C17   C124 
O19   C20 
C20   O21 
C20   C180 
O22   C23 
C23   O24 
C23   C88 
O25   C26 
C26   O27 
C26   C32 
C28   C29 
C28   C33 
C28   H45 
C29   C30 
C30   C31 
C30   O34 
C31   C32 
C31   H44 
C32   C33 
C33   O39 
O34   C35 
C35   C36 
C35   H48 
C35   H49 
C36   C37 
C36   H52 
C36   H53 
C37   C38 
C37   H54 
C37   H55 
C38   H61 
C38   H62 
C38   H63 
O39   C40 
C40   C41 
C40   H46 
C40   H47 
C41   C42 
C41   H50 
C41   H51 
C42   C43 
C42   H56 
C42   H57 
C43   H58 
C43   H59 
C43   H60 
N64   C65 
N64   C66 
N64   C67 
N64   Cu213 
C65   C71 
C65   H72 
C65   H73 
C66   C68 
C66   H69 
C66   H70 
C67   C74 
C67   H75 
C67   H76 
C68   H79 
C68   H80 
C68   N82 
C71   H77 
C71   H78 
C71   N82 
C74   H81 
C74   N82 
C74   H83 
C84   C85 
C84   C89 
C84   H101 
C85   C86 
C86   C87 
C86   O90 
C87   C88 
C87   H100 
C88   C89 
C89   O95 
O90   C91 
C91   C92 
C91   H104 
C91   H105 
C92   C93 
C92   H108 
C92   H109 
C93   C94 
C93   H110 
C93   H111 
C94   H117 
C94   H118 
C94   H119 
O95   C96 
C96   C97 
C96   H102 
C96   H103 
C97   C98 
C97   H106 
C97   H107 
C98   C99 
C98   H112 
C98   H113 
C99   H114 
C99   H115 
C99   H116 
C120   C121 
C120   C125 
C120   H137 
C121   C122 
C122   C123 
C122   O126 
C123   C124 
C123   H136 
C124   C125 
C125   O131 
O126   C127 
C127   C128 
C127   H140 
C127   H141 
C128   C129 
C128   H144 
C128   H145 
C129   C130 
C129   H146 
C129   H147 
C130   H153 
C130   H154 
C130   H155 
O131   C132 
C132   C133 
C132   H138 
C132   H139 
C133   C134 
C133   H142 
C133   H143 
C134   C135 
C134   H148 
C134   H149 
C135   H150 
C135   H151 
C135   H152 
N156   C157 
N156   C158 
N156   C159 
N156   Cu227 
C157   C163 
C157   H164 
C157   H165 
C158   C160 
C158   H161 
C158   H162 
C159   C166 
C159   H167 
C159   H168 
C160   H171 
C160   H172 
C160   N174 
C163   H169 
C163   H170 
C163   N174 
C166   H173 
C166   N174 
C166   H175 
C176   C177 
C176   C181 
C176   H193 
C177   C178 
C178   C179 
C178   O182 
C179   C180 
C179   H192 
C180   C181 
C181   O187 
O182   C183 
C183   C184 
C183   H196 
C183   H197 
C184   C185 
C184   H200 
C184   H201 
C185   C186 
C185   H202 
C185   H203 
C186   H209 
C186   H210 
C186   H211 
O187   C188 
C188   C189 
C188   H194 
C188   H195 
C189   C190 
C189   H198 
C189   H199 
C190   C191 
C190   H204 
C190   H205 
C191   H206 
C191   H207 
C191   H208 
Cu212   Cu213 
Cu212   O216 
Cu212   O219 
Cu212   O222 
Cu212   O225 
Cu212   N294 
Cu213   O214 
Cu213   O217 
Cu213   O220 
Cu213   O223 
O214   C215 
C215   O216 
C215   C244 
O217   C218 
C218   O219 
C218   C297 
O220   C221 
C221   O222 
C221   C389 
O223   C224 
C224   O225 
C224   C333 
Cu226   Cu227 
Cu226   O230 
Cu226   O233 
Cu226   O236 
Cu226   O239 
Cu226   N386 
Cu227   O228 
Cu227   O231 
Cu227   O234 
Cu227   O237 
O228   C229 
C229   O230 
C229   C336 
O231   C232 
C232   O233 
C232   C392 
O234   C235 
C235   O236 
C235   C300 
O237   C238 
C238   O239 
C238   C241 
C240   C241 
C240   C245 
C240   H257 
C241   C242 
C242   C243 
C242   O246 
C243   C244 
C243   H256 
C244   C245 
C245   O251 
O246   C247 
C247   C248 
C247   H260 
C247   H261 
C248   C249 
C248   H264 
C248   H265 
C249   C250 
C249   H266 
C249   H267 
C250   H273 
C250   H274 
C250   H275 
O251   C252 
C252   C253 
C252   H258 
C252   H259 
C253   C254 
C253   H262 
C253   H263 
C254   C255 
C254   H268 
C254   H269 
C255   H270 
C255   H271 
C255   H272 
N276   C277 
N276   C278 
N276   C279 
C277   C283 
C277   H284 
C277   H285 
C278   C280 
C278   H281 
C278   H282 
C279   C286 
C279   H287 
C279   H288 
C280   H291 
C280   H292 
C280   N294 
C283   H289 
C283   H290 
C283   N294 
C286   H293 
C286   N294 
C286   H295 
C296   C297 
C296   C301 
C296   H313 
C297   C298 
C298   C299 
C298   O302 
C299   C300 
C299   H312 
C300   C301 
C301   O307 
O302   C303 
C303   C304 
C303   H316 
C303   H317 
C304   C305 
C304   H320 
C304   H321 
C305   C306 
C305   H322 
C305   H323 
C306   H329 
C306   H330 
C306   H331 
O307   C308 
C308   C309 
C308   H314 
C308   H315 
C309   C310 
C309   H318 
C309   H319 
C310   C311 
C310   H324 
C310   H325 
C311   H326 
C311   H327 
C311   H328 
C332   C333 
C332   C337 
C332   H349 
C333   C334 
C334   C335 
C334   O338 
C335   C336 
C335   H348 
C336   C337 
C337   O343 
O338   C339 
C339   C340 
C339   H352 
C339   H353 
C340   C341 
C340   H356 
C340   H357 
C341   C342 
C341   H358 
C341   H359 
C342   H365 
C342   H366 
C342   H367 
O343   C344 
C344   C345 
C344   H350 
C344   H351 
C345   C346 
C345   H354 
C345   H355 
C346   C347 
C346   H360 
C346   H361 
C347   H362 
C347   H363 
C347   H364 
N368   C369 
N368   C370 
N368   C371 
C369   C375 
C369   H376 
C369   H377 
C370   C372 
C370   H373 
C370   H374 
C371   C378 
C371   H379 
C371   H380 
C372   H383 
C372   H384 
C372   N386 
C375   H381 
C375   H382 
C375   N386 
C378   H385 
C378   N386 
C378   H387 
C388   C389 
C388   C393 
C388   H405 
C389   C390 
C390   C391 
C390   O394 
C391   C392 
C391   H404 
C392   C393 
C393   O399 
O394   C395 
C395   C396 
C395   H408 
C395   H409 
C396   C397 
C396   H412 
C396   H413 
C397   C398 
C397   H414 
C397   H415 
C398   H421 
C398   H422 
C398   H423 
O399   C400 
C400   C401 
C400   H406 
C400   H407 
C401   C402 
C401   H410 
C401   H411 
C402   C403 
C402   H416 
C402   H417 
C403   H418 
C403   H419 
C403   H420 
  
#END  
