data_
_symmetry_cell_setting           triclinic 
_symmetry_space_group_name_H-M   'P 1' 
_symmetry_Int_Tables_number      1 
loop_ 
_symmetry_equiv_pos_site_id 
_symmetry_equiv_pos_as_xyz 
1 x,y,z 
_cell_length_a             10.582368        
_cell_length_b             18.541798        
_cell_length_c             19.151720        
_cell_angle_alpha          90.048392        
_cell_angle_beta           86.293047        
_cell_angle_gamma          90.151523        
loop_  
_atom_site_label   
_atom_site_type_symbol  
_atom_site_fract_x  
_atom_site_fract_y  
_atom_site_fract_z 
 Cu0  Cu    -0.010564      0.000209      0.068672 
 Cu1  Cu     0.000942     -0.001048     -0.064340 
 O2  O    -0.131461      0.066398     -0.043908 
 C3  C    -0.150671      0.104558      0.009039 
 O4  O    -0.113769      0.082948      0.067596 
 O5  O     0.120015      0.071728     -0.059940 
 C6  C     0.160584      0.099140     -0.004884 
 O7  O     0.132313      0.072595      0.055742 
 O8  O    -0.129252     -0.080496     -0.061713 
 C9  C    -0.170069     -0.106255     -0.001923 
 O10  O    -0.146020     -0.077442      0.056510 
 O11  O     0.135218     -0.077685     -0.068589 
 C12  C     0.151167     -0.110242     -0.011372 
 O13  O     0.112478     -0.078996      0.047818 
 Cu14  Cu     0.476467      0.495454      0.069963 
 Cu15  Cu     0.477553      0.492507     -0.066255 
 O16  O     0.372188     -0.425416     -0.055100 
 C17  C     0.340518     -0.402750      0.004295 
 O18  O     0.342710     -0.440794      0.058539 
 O19  O    -0.385771     -0.426543     -0.063702 
 C20  C    -0.361650     -0.396338     -0.005081 
 O21  O    -0.396537     -0.420554      0.056300 
 O22  O     0.335624      0.421305     -0.055367 
 C23  C     0.323481      0.390862      0.003796 
 O24  O     0.350549      0.414323      0.063569 
 O25  O    -0.399750      0.409587     -0.056706 
 C26  C    -0.364248      0.390746      0.001167 
 O27  O    -0.385175      0.424994      0.058969 
 C28  C    -0.344366      0.263723     -0.045551 
 C29  C    -0.313682      0.314888      0.005371 
 C30  C    -0.222869      0.301031      0.052842 
 C31  C    -0.164707      0.231166      0.050544 
 C32  C    -0.199249      0.178864      0.004613 
 C33  C    -0.281162      0.197241     -0.049396 
 O34  O    -0.201092      0.350837      0.101001 
 C35  C    -0.072946      0.358102      0.120574 
 C36  C    -0.041418      0.433184      0.151002 
 C37  C    -0.047224      0.493877      0.095772 
 C38  C    -0.037217     -0.430632      0.129133 
 O39  O    -0.312065      0.145033     -0.099774 
 C40  C    -0.441454      0.138937     -0.114838 
 C41  C    -0.458641      0.084727     -0.174482 
 C42  C    -0.429669      0.007714     -0.157770 
 C43  C     0.494948     -0.020722     -0.092689 
 H44  H    -0.100521      0.219570      0.090188 
 H45  H    -0.409194      0.276494     -0.083480 
 H46  H     0.496845      0.128908     -0.066412 
 H47  H    -0.462488      0.189576     -0.142089 
 H48  H    -0.053227      0.314635      0.156213 
 H49  H    -0.005338      0.346282      0.076881 
 H50  H     0.442700      0.086729     -0.188254 
 H51  H    -0.402775      0.108437     -0.222171 
 H52  H    -0.115060      0.444903      0.193086 
 H53  H     0.056744      0.433780      0.170576 
 H54  H     0.034121      0.488077      0.058300 
 H55  H    -0.131269      0.486381      0.063034 
 H56  H    -0.452553     -0.029369     -0.199572 
 H57  H    -0.336359     -0.000076     -0.144239 
 H58  H    -0.499109      0.014124     -0.045906 
 H59  H     0.389109     -0.026486     -0.098665 
 H60  H    -0.460394     -0.070117     -0.073842 
 H61  H    -0.025090     -0.388513      0.088054 
 H62  H    -0.133982     -0.421549      0.161027 
 H63  H     0.036013     -0.427376      0.166693 
 N64  N     0.004367      0.011293      0.319095 
 C65  C    -0.037678     -0.061334      0.294033 
 C66  C    -0.078846      0.065244      0.291441 
 C67  C     0.136123      0.021124      0.287488 
 C68  C    -0.076209      0.062166      0.212176 
 H69  H    -0.174460      0.064567      0.319269 
 H70  H    -0.040344      0.120529      0.308833 
 C71  C    -0.041944     -0.066064      0.216277 
 H72  H     0.024346     -0.099574      0.314681 
 H73  H    -0.135081     -0.075622      0.312814 
 C74  C     0.130151      0.018577      0.207967 
 H75  H     0.183492      0.071117      0.299041 
 H76  H     0.185971     -0.020936      0.313778 
 H77  H     0.014363     -0.115976      0.196802 
 H78  H    -0.142356     -0.076230      0.204036 
 H79  H    -0.172821      0.058353      0.195073 
 H80  H    -0.047821      0.114398      0.188491 
 H81  H     0.203237     -0.019806      0.185935 
 N82  N     0.007174      0.003485      0.182210 
 H83  H     0.169348      0.070207      0.185268 
 C84  C     0.143787      0.225422     -0.037205 
 C85  C     0.221015      0.172427     -0.008403 
 C86  C     0.328495      0.186754      0.027146 
 C87  C     0.357590      0.262792      0.031611 
 C88  C     0.282687      0.312738      0.002938 
 C89  C     0.173921      0.295905     -0.028430 
 O90  O     0.386981      0.127156      0.049936 
 C91  C     0.491365      0.133064      0.097241 
 C92  C    -0.416146      0.065921      0.092039 
 C93  C    -0.480429     -0.000649      0.124117 
 C94  C     0.419710     -0.034889      0.079848 
 O95  O     0.102070      0.348885     -0.054310 
 C96  C    -0.010621      0.331754     -0.093192 
 C97  C    -0.065685      0.407292     -0.102050 
 C98  C     0.027660      0.458530     -0.138347 
 C99  C     0.057419      0.433830     -0.215855 
 H100  H     0.439458      0.281981      0.057509 
 H101  H     0.055142      0.212013     -0.061269 
 H102  H     0.008327      0.305543     -0.145756 
 H103  H    -0.082830      0.297330     -0.067354 
 H104  H    -0.452855      0.184396      0.086466 
 H105  H     0.444240      0.133609      0.151734 
 H106  H    -0.157692      0.411362     -0.127783 
 H107  H    -0.089225      0.420233     -0.045817 
 H108  H    -0.384936      0.053344      0.037793 
 H109  H    -0.328324      0.074485      0.119011 
 H110  H    -0.407665     -0.043984      0.131555 
 H111  H     0.470017      0.013526      0.174091 
 H112  H    -0.027093     -0.492265     -0.141555 
 H113  H     0.116852      0.471296     -0.110364 
 H114  H    -0.023895      0.420768     -0.242352 
 H115  H     0.112740      0.472711     -0.250509 
 H116  H     0.107493      0.378593     -0.216839 
 H117  H     0.346110      0.003932      0.057654 
 H118  H     0.470529     -0.062955      0.033593 
 H119  H     0.378632     -0.079189      0.111015 
 C120  C     0.160749     -0.225494      0.053622 
 C121  C     0.201159     -0.185905     -0.005339 
 C122  C     0.285426     -0.217769     -0.060384 
 C123  C     0.318974     -0.286858     -0.055100 
 C124  C     0.288031     -0.326104      0.007511 
 C125  C     0.216250     -0.292294      0.062361 
 O126  O     0.328232     -0.175018     -0.116288 
 C127  C     0.446153     -0.190676     -0.157331 
 C128  C     0.431975     -0.156917     -0.230668 
 C129  C     0.329524     -0.189377     -0.274500 
 C130  C     0.324444     -0.269685     -0.293740 
 O131  O     0.187233     -0.327201      0.121548 
 C132  C     0.197976     -0.291862      0.186953 
 C133  C     0.327939     -0.254504      0.192677 
 C134  C     0.315084     -0.185497      0.239495 
 C135  C     0.238335     -0.198834      0.310266 
 H136  H     0.378525     -0.300900     -0.098581 
 H137  H     0.099278     -0.202485      0.094285 
 H138  H     0.124294     -0.249349      0.198964 
 H139  H     0.183508     -0.333759      0.229624 
 H140  H    -0.468550     -0.175069     -0.127610 
 H141  H     0.453712     -0.250100     -0.167241 
 H142  H     0.395734     -0.288074      0.219989 
 H143  H     0.382959     -0.244070      0.144030 
 H144  H     0.398956     -0.102090     -0.224054 
 H145  H    -0.473094     -0.155232     -0.258473 
 H146  H     0.238356     -0.188283     -0.244503 
 H147  H     0.323625     -0.160147     -0.323240 
 H148  H     0.408135     -0.170320      0.249009 
 H149  H     0.276096     -0.140337      0.213029 
 H150  H     0.276735     -0.248421      0.331132 
 H151  H     0.243430     -0.152870      0.345337 
 H152  H     0.137049     -0.206523      0.306000 
 H153  H     0.241839     -0.278783     -0.324721 
 H154  H     0.412820     -0.283175     -0.327426 
 H155  H     0.315301     -0.300306     -0.245146 
 N156  N     0.472750      0.498329      0.317723 
 C157  C     0.437432     -0.428646      0.294230 
 C158  C    -0.412230      0.479132      0.280984 
 C159  C     0.365886      0.451031      0.300144 
 C160  C    -0.421325      0.472756      0.199449 
 H161  H    -0.337942     -0.483190      0.289827 
 H162  H    -0.386183      0.430753      0.306177 
 C163  C     0.444413     -0.429242      0.212178 
 H164  H     0.332647     -0.422292      0.310765 
 H165  H    -0.496183     -0.388232      0.313618 
 C166  C     0.348508      0.458000      0.216960 
 H167  H     0.393668      0.394060      0.320123 
 H168  H     0.283434      0.463796      0.334922 
 H169  H     0.372890     -0.398796      0.190806 
 H170  H    -0.467086     -0.398863      0.187405 
 H171  H    -0.349999     -0.495688      0.167229 
 H172  H    -0.414496      0.415430      0.183307 
 H173  H     0.265951      0.492951      0.211967 
 N174  N     0.453144     -0.499969      0.183705 
 H175  H     0.341764      0.404020      0.190687 
 C176  C    -0.223806     -0.215046     -0.069625 
 C177  C    -0.239680     -0.175130     -0.005894 
 C178  C    -0.304843     -0.204314      0.054167 
 C179  C    -0.357515     -0.275087      0.050491 
 C180  C    -0.326552     -0.316434     -0.008594 
 C181  C    -0.264322     -0.288255     -0.070603 
 O182  O    -0.324013     -0.166931      0.112549 
 C183  C    -0.321322     -0.203349      0.177572 
 C184  C    -0.191403     -0.238136      0.184853 
 C185  C    -0.183729     -0.269372      0.258161 
 C186  C    -0.285989     -0.323725      0.284318 
 O187  O    -0.243644     -0.332832     -0.128594 
 C188  C    -0.163705     -0.307765     -0.183534 
 C189  C    -0.022818     -0.291692     -0.174032 
 C190  C     0.049108     -0.354858     -0.150649 
 C191  C     0.018235     -0.379825     -0.075469 
 H192  H    -0.402229     -0.297230      0.099046 
 H193  H    -0.179851     -0.185473     -0.113378 
 H194  H    -0.162316     -0.353064     -0.224101 
 H195  H    -0.210994     -0.258073     -0.200723 
 H196  H    -0.339716     -0.161728      0.217907 
 H197  H    -0.404482     -0.240868      0.187761 
 H198  H     0.020113     -0.269829     -0.222767 
 H199  H    -0.010302     -0.245291     -0.138803 
 H200  H    -0.165497     -0.277069      0.146001 
 H201  H    -0.115845     -0.196112      0.178245 
 H202  H    -0.086975     -0.294070      0.260564 
 H203  H    -0.183749     -0.222172      0.293063 
 H204  H     0.030776     -0.401046     -0.183247 
 H205  H     0.147322     -0.343127     -0.158424 
 H206  H     0.020837     -0.337022     -0.034081 
 H207  H    -0.087422     -0.394020     -0.068762 
 H208  H     0.083524     -0.423833     -0.059542 
 H209  H    -0.288430     -0.331454      0.340533 
 H210  H    -0.375866     -0.302237      0.267552 
 H211  H    -0.272384     -0.377706      0.259707 
 Cu212  Cu    -0.002588     -0.000544     -0.430551 
 Cu213  Cu    -0.007478     -0.001948      0.434819 
 O214  O    -0.148745      0.063460      0.439657 
 C215  C    -0.169797      0.094148      0.498555 
 O216  O    -0.136570      0.068436     -0.446992 
 O217  O     0.105883      0.085483      0.439050 
 C218  C     0.132573      0.111518      0.496293 
 O219  O     0.111127      0.085018     -0.442481 
 O220  O    -0.113639     -0.085343      0.443371 
 C221  C    -0.139581     -0.110433     -0.495042 
 O222  O    -0.112851     -0.082995     -0.436668 
 O223  O     0.137583     -0.063332      0.446021 
 C224  C     0.173822     -0.089681     -0.496778 
 O225  O     0.152831     -0.062062     -0.435109 
 Cu226  Cu    -0.497134     -0.497324     -0.430625 
 Cu227  Cu     0.482366     -0.495763      0.436587 
 O228  O     0.382119     -0.404184      0.454913 
 C229  C     0.371737     -0.377412     -0.484145 
 O230  O     0.398844     -0.406302     -0.426507 
 O231  O    -0.353732     -0.433614      0.440356 
 C232  C    -0.340861     -0.401667      0.498681 
 O233  O    -0.362784     -0.427673     -0.439002 
 O234  O     0.315054      0.446171      0.457456 
 C235  C     0.316638      0.402754     -0.491412 
 O236  O     0.368818      0.422425     -0.436694 
 O237  O    -0.447549      0.407949      0.431733 
 C238  C    -0.376160      0.387907      0.478968 
 O239  O    -0.372550      0.419321     -0.462516 
 C240  C    -0.222159      0.300046     -0.465844 
 C241  C    -0.306453      0.316856      0.480219 
 C242  C    -0.355681      0.258908      0.441011 
 C243  C    -0.317874      0.187310      0.451720 
 C244  C    -0.229567      0.170051      0.498667 
 C245  C    -0.181803      0.226075     -0.459089 
 O246  O    -0.428561      0.279995      0.385183 
 C247  C     0.489498      0.225481      0.359151 
 C248  C     0.462703      0.241946      0.285166 
 C249  C    -0.418980      0.259474      0.238507 
 C250  C    -0.312711      0.201708      0.234463 
 O251  O    -0.102326      0.206194     -0.405682 
 C252  C    -0.032065      0.258891     -0.370347 
 C253  C    -0.063245      0.258803     -0.293902 
 C254  C    -0.203401      0.279595     -0.279868 
 C255  C    -0.256485      0.268148     -0.203287 
 H256  H    -0.357895      0.140163      0.422501 
 H257  H    -0.187048      0.340851     -0.432121 
 H258  H     0.066672      0.245771     -0.387483 
 H259  H    -0.051383      0.307564     -0.398116 
 H260  H    -0.464900      0.173972      0.361323 
 H261  H     0.399067      0.226937      0.390957 
 H262  H    -0.031915      0.210768     -0.262894 
 H263  H    -0.013325      0.304152     -0.270115 
 H264  H     0.405797      0.198804      0.265804 
 H265  H     0.393830      0.287900      0.286176 
 H266  H    -0.439752      0.272281      0.184485 
 H267  H    -0.371315      0.308844      0.251116 
 H268  H    -0.215160      0.339539     -0.294765 
 H269  H    -0.269797      0.249358     -0.309814 
 H270  H    -0.216886      0.300078     -0.165226 
 H271  H    -0.363104      0.275071     -0.192403 
 H272  H    -0.233442      0.211324     -0.192377 
 H273  H    -0.329078      0.152128      0.208847 
 H274  H    -0.226640      0.223485      0.203020 
 H275  H    -0.291008      0.185100      0.287235 
 N276  N     0.000540      0.003797     -0.179479 
 C277  C     0.138509      0.007178     -0.207844 
 C278  C    -0.064105     -0.064502     -0.207070 
 C279  C    -0.056950      0.068541     -0.209655 
 C280  C    -0.060491     -0.061792     -0.288209 
 H281  H    -0.018248     -0.114434     -0.190755 
 H282  H    -0.160256     -0.065256     -0.188516 
 C283  C     0.145522     -0.003209     -0.284185 
 H284  H     0.184007      0.056687     -0.184947 
 H285  H     0.197533     -0.038889     -0.189677 
 C286  C    -0.040543      0.066203     -0.291238 
 H287  H    -0.158511      0.068126     -0.186213 
 H288  H    -0.007715      0.117948     -0.186533 
 H289  H     0.220767      0.031273     -0.310572 
 H290  H     0.181681     -0.055718     -0.300385 
 H291  H    -0.030874     -0.114152     -0.313005 
 H292  H    -0.157815     -0.049342     -0.302190 
 H293  H     0.027843      0.105806     -0.313314 
 N294  N     0.022689      0.000539     -0.315695 
 H295  H    -0.129110      0.069108     -0.316919 
 C296  C     0.168589      0.317557      0.454948 
 C297  C     0.264912      0.330479     -0.498110 
 C298  C     0.306092      0.278097     -0.452428 
 C299  C     0.262451      0.203413     -0.459288 
 C300  C     0.177967      0.187777      0.490391 
 C301  C     0.125857      0.245499      0.448465 
 O302  O     0.396669      0.299893     -0.405169 
 C303  C     0.469357      0.249813     -0.370075 
 C304  C     0.432034      0.255129     -0.290684 
 C305  C     0.291604      0.240687     -0.271538 
 C306  C     0.259768      0.246225     -0.193780 
 O307  O     0.038721      0.222936      0.397980 
 C308  C    -0.010182      0.277966      0.352401 
 C309  C     0.084481      0.297194      0.291150 
 C310  C     0.104276      0.232079      0.240548 
 C311  C     0.196459      0.247735      0.179758 
 H312  H     0.302025      0.161029     -0.431692 
 H313  H     0.144808      0.365264      0.423513 
 H314  H    -0.103567      0.255125      0.341644 
 H315  H    -0.021492      0.330266      0.380131 
 H316  H     0.468014      0.197061     -0.397613 
 H317  H    -0.424786      0.265148     -0.384825 
 H318  H     0.038477      0.341476      0.266599 
 H319  H     0.164768      0.323320      0.312138 
 H320  H     0.498669      0.223204     -0.265260 
 H321  H     0.445345      0.309423     -0.273108 
 H322  H     0.228986      0.284421     -0.297999 
 H323  H     0.271612      0.183974     -0.284227 
 H324  H     0.127559      0.184952      0.275755 
 H325  H     0.013689      0.219295      0.215727 
 H326  H     0.164250      0.294424      0.150063 
 H327  H     0.303772      0.259169      0.188021 
 H328  H     0.199512      0.197803      0.145226 
 H329  H     0.328186      0.216334     -0.161830 
 H330  H     0.278653      0.301079     -0.179076 
 H331  H     0.160318      0.228900     -0.174577 
 C332  C     0.159679     -0.216052     -0.453417 
 C333  C     0.228928     -0.162801     -0.495214 
 C334  C     0.343176     -0.177393      0.469318 
 C335  C     0.389459     -0.247368      0.472462 
 C336  C     0.322886     -0.301642     -0.483842 
 C337  C     0.203987     -0.289094     -0.448038 
 O338  O     0.418234     -0.124788      0.430260 
 C339  C    -0.456862     -0.149201      0.402039 
 C340  C    -0.387602     -0.082283      0.367609 
 C341  C    -0.457399     -0.037674      0.314220 
 C342  C     0.429364      0.005566      0.337965 
 O343  O     0.143224     -0.345413     -0.412222 
 C344  C     0.011032     -0.339136     -0.390659 
 C345  C    -0.046251     -0.413387     -0.362169 
 C346  C    -0.048663     -0.479070     -0.416204 
 C347  C     0.084143      0.489061     -0.429406 
 H348  H     0.484192     -0.258616      0.445292 
 H349  H     0.065459     -0.195460     -0.428411 
 H350  H    -0.007694     -0.301850     -0.348743 
 H351  H    -0.035366     -0.321520     -0.435182 
 H352  H    -0.391172     -0.169139      0.442088 
 H353  H    -0.458405     -0.195019      0.367700 
 H354  H     0.002569     -0.437545     -0.318960 
 H355  H    -0.140933     -0.394826     -0.342736 
 H356  H    -0.356671     -0.041650      0.405305 
 H357  H    -0.306483     -0.111141      0.342707 
 H358  H    -0.384318      0.002591      0.292610 
 H359  H    -0.466709     -0.070862      0.265569 
 H360  H    -0.120605      0.478786     -0.397190 
 H361  H    -0.070130     -0.460731     -0.475367 
 H362  H     0.117495      0.464658     -0.378431 
 H363  H     0.095370      0.450846     -0.475001 
 H364  H     0.151453     -0.464618     -0.446793 
 H365  H     0.349178     -0.028614      0.348666 
 H366  H     0.447515      0.033878      0.391366 
 H367  H     0.398056      0.046708      0.297751 
 N368  N    -0.479991      0.496530     -0.186601 
 C369  C    -0.452632     -0.428771     -0.211758 
 C370  C    -0.381854      0.447424     -0.217231 
 C371  C     0.401975      0.469476     -0.210136 
 C372  C    -0.385825      0.443460     -0.296602 
 H373  H    -0.288145      0.466560     -0.206044 
 H374  H    -0.405991      0.392656     -0.196474 
 C375  C    -0.437831     -0.432221     -0.293598 
 H376  H     0.466450     -0.398824     -0.197531 
 H377  H    -0.372712     -0.408739     -0.186517 
 C378  C     0.400000      0.478028     -0.291050 
 H379  H     0.396178      0.411313     -0.192770 
 H380  H     0.323806      0.498895     -0.185659 
 H381  H     0.497279     -0.394403     -0.315962 
 H382  H    -0.340130     -0.421468     -0.311472 
 H383  H    -0.292792      0.459030     -0.320430 
 H384  H    -0.409231      0.390041     -0.316657 
 H385  H     0.333848     -0.477074     -0.303399 
 N386  N    -0.469835      0.496014     -0.323559 
 H387  H     0.373007      0.428126     -0.313434 
 C388  C    -0.145684     -0.235049      0.451384 
 C389  C    -0.201795     -0.185423     -0.498402 
 C390  C    -0.297970     -0.207473     -0.447536 
 C391  C    -0.349102     -0.276061     -0.451062 
 C392  C    -0.288999     -0.325778      0.499541 
 C393  C    -0.185594     -0.308162      0.455738 
 O394  O    -0.332105     -0.166429     -0.391350 
 C395  C    -0.430020     -0.115378     -0.408539 
 C396  C    -0.393331     -0.042863     -0.373743 
 C397  C    -0.485634      0.018381     -0.384166 
 C398  C     0.483403      0.017978     -0.459910 
 O399  O    -0.118078     -0.364402      0.417387 
 C400  C     0.011727     -0.348036      0.390887 
 C401  C     0.082014     -0.418547      0.367902 
 C402  C     0.014083     -0.470129      0.319798 
 C403  C    -0.088741      0.478999      0.360201 
 H404  H    -0.421062     -0.294285     -0.412065 
 H405  H    -0.067747     -0.215314      0.413842 
 H406  H    -0.006630     -0.311015      0.347093 
 H407  H     0.065090     -0.321087      0.428285 
 H408  H    -0.428120     -0.108741     -0.465520 
 H409  H     0.476762     -0.132855     -0.397582 
 H410  H     0.157639     -0.399453      0.332317 
 H411  H     0.105561     -0.449598      0.418852 
 H412  H    -0.391935     -0.047618     -0.317249 
 H413  H    -0.299609     -0.021872     -0.397022 
 H414  H     0.418740      0.012506     -0.355231 
 H415  H    -0.430861      0.066280     -0.365921 
 H416  H    -0.040802     -0.437038      0.286392 
 H417  H     0.077653      0.496633      0.283740 
 H418  H    -0.159504      0.458352      0.327709 
 H419  H    -0.049755      0.434711      0.391350 
 H420  H    -0.146815     -0.490212      0.397598 
 H421  H    -0.427046      0.034280     -0.493084 
 H422  H     0.445320     -0.038428     -0.480059 
 H423  H     0.408997      0.050916     -0.473133 
loop_  
_geom_bond_atom_site_label_1  
_geom_bond_atom_site_label_2  
Cu0   Cu1 
Cu0   O4 
Cu0   O7 
Cu0   O10 
Cu0   O13 
Cu0   N82 
Cu1   O2 
Cu1   O5 
Cu1   O8 
Cu1   O11 
Cu1   N276 
O2   C3 
C3   O4 
C3   C32 
O5   C6 
C6   O7 
C6   C85 
O8   C9 
C9   O10 
C9   C177 
O11   C12 
C12   O13 
C12   C121 
Cu14   Cu15 
Cu14   O18 
Cu14   O21 
Cu14   O24 
Cu14   O27 
Cu14   N174 
Cu15   O16 
Cu15   O19 
Cu15   O22 
Cu15   O25 
Cu15   N368 
O16   C17 
C17   O18 
C17   C124 
O19   C20 
C20   O21 
C20   C180 
O22   C23 
C23   O24 
C23   C88 
O25   C26 
C26   O27 
C26   C29 
C28   C29 
C28   C33 
C28   H45 
C29   C30 
C30   C31 
C30   O34 
C31   C32 
C31   H44 
C32   C33 
C33   O39 
O34   C35 
C35   C36 
C35   H48 
C35   H49 
C36   C37 
C36   H52 
C36   H53 
C37   C38 
C37   H54 
C37   H55 
C38   H61 
C38   H62 
C38   H63 
O39   C40 
C40   C41 
C40   H46 
C40   H47 
C41   C42 
C41   H50 
C41   H51 
C42   C43 
C42   H56 
C42   H57 
C43   H58 
C43   H59 
C43   H60 
N64   C65 
N64   C66 
N64   C67 
N64   Cu213 
C65   C71 
C65   H72 
C65   H73 
C66   C68 
C66   H69 
C66   H70 
C67   C74 
C67   H75 
C67   H76 
C68   H79 
C68   H80 
C68   N82 
C71   H77 
C71   H78 
C71   N82 
C74   H81 
C74   N82 
C74   H83 
C84   C85 
C84   C89 
C84   H101 
C85   C86 
C86   C87 
C86   O90 
C87   C88 
C87   H100 
C88   C89 
C89   O95 
O90   C91 
C91   C92 
C91   H104 
C91   H105 
C92   C93 
C92   H108 
C92   H109 
C93   C94 
C93   H110 
C93   H111 
C94   H117 
C94   H118 
C94   H119 
O95   C96 
C96   C97 
C96   H102 
C96   H103 
C97   C98 
C97   H106 
C97   H107 
C98   C99 
C98   H112 
C98   H113 
C99   H114 
C99   H115 
C99   H116 
C120   C121 
C120   C125 
C120   H137 
C121   C122 
C122   C123 
C122   O126 
C123   C124 
C123   H136 
C124   C125 
C125   O131 
O126   C127 
C127   C128 
C127   H140 
C127   H141 
C128   C129 
C128   H144 
C128   H145 
C129   C130 
C129   H146 
C129   H147 
C130   H153 
C130   H154 
C130   H155 
O131   C132 
C132   C133 
C132   H138 
C132   H139 
C133   C134 
C133   H142 
C133   H143 
C134   C135 
C134   H148 
C134   H149 
C135   H150 
C135   H151 
C135   H152 
N156   C157 
N156   C158 
N156   C159 
N156   Cu227 
C157   C163 
C157   H164 
C157   H165 
C158   C160 
C158   H161 
C158   H162 
C159   C166 
C159   H167 
C159   H168 
C160   H171 
C160   H172 
C160   N174 
C163   H169 
C163   H170 
C163   N174 
C166   H173 
C166   N174 
C166   H175 
C176   C177 
C176   C181 
C176   H193 
C177   C178 
C178   C179 
C178   O182 
C179   C180 
C179   H192 
C180   C181 
C181   O187 
O182   C183 
C183   C184 
C183   H196 
C183   H197 
C184   C185 
C184   H200 
C184   H201 
C185   C186 
C185   H202 
C185   H203 
C186   H209 
C186   H210 
C186   H211 
O187   C188 
C188   C189 
C188   H194 
C188   H195 
C189   C190 
C189   H198 
C189   H199 
C190   C191 
C190   H204 
C190   H205 
C191   H206 
C191   H207 
C191   H208 
Cu212   Cu213 
Cu212   O216 
Cu212   O219 
Cu212   O222 
Cu212   O225 
Cu212   N294 
Cu213   O214 
Cu213   O217 
Cu213   O220 
Cu213   O223 
O214   C215 
C215   O216 
C215   C244 
O217   C218 
C218   O219 
C218   C300 
O220   C221 
C221   O222 
C221   C389 
O223   C224 
C224   O225 
C224   C333 
Cu226   Cu227 
Cu226   O230 
Cu226   O233 
Cu226   O236 
Cu226   O239 
Cu226   N386 
Cu227   O228 
Cu227   O231 
Cu227   O234 
Cu227   O237 
O228   C229 
C229   O230 
C229   C336 
O231   C232 
C232   O233 
C232   C392 
O234   C235 
C235   O236 
C235   C297 
O237   C238 
C238   O239 
C238   C241 
C240   C241 
C240   C245 
C240   H257 
C241   C242 
C242   C243 
C242   O246 
C243   C244 
C243   H256 
C244   C245 
C245   O251 
O246   C247 
C247   C248 
C247   H260 
C247   H261 
C248   C249 
C248   H264 
C248   H265 
C249   C250 
C249   H266 
C249   H267 
C250   H273 
C250   H274 
C250   H275 
O251   C252 
C252   C253 
C252   H258 
C252   H259 
C253   C254 
C253   H262 
C253   H263 
C254   C255 
C254   H268 
C254   H269 
C255   H270 
C255   H271 
C255   H272 
N276   C277 
N276   C278 
N276   C279 
C277   C283 
C277   H284 
C277   H285 
C278   C280 
C278   H281 
C278   H282 
C279   C286 
C279   H287 
C279   H288 
C280   H291 
C280   H292 
C280   N294 
C283   H289 
C283   H290 
C283   N294 
C286   H293 
C286   N294 
C286   H295 
C296   C297 
C296   C301 
C296   H313 
C297   C298 
C298   C299 
C298   O302 
C299   C300 
C299   H312 
C300   C301 
C301   O307 
O302   C303 
C303   C304 
C303   H316 
C303   H317 
C304   C305 
C304   H320 
C304   H321 
C305   C306 
C305   H322 
C305   H323 
C306   H329 
C306   H330 
C306   H331 
O307   C308 
C308   C309 
C308   H314 
C308   H315 
C309   C310 
C309   H318 
C309   H319 
C310   C311 
C310   H324 
C310   H325 
C311   H326 
C311   H327 
C311   H328 
C332   C333 
C332   C337 
C332   H349 
C333   C334 
C334   C335 
C334   O338 
C335   C336 
C335   H348 
C336   C337 
C337   O343 
O338   C339 
C339   C340 
C339   H352 
C339   H353 
C340   C341 
C340   H356 
C340   H357 
C341   C342 
C341   H358 
C341   H359 
C342   H365 
C342   H366 
C342   H367 
O343   C344 
C344   C345 
C344   H350 
C344   H351 
C345   C346 
C345   H354 
C345   H355 
C346   C347 
C346   H360 
C346   H361 
C347   H362 
C347   H363 
C347   H364 
N368   C369 
N368   C370 
N368   C371 
C369   C375 
C369   H376 
C369   H377 
C370   C372 
C370   H373 
C370   H374 
C371   C378 
C371   H379 
C371   H380 
C372   H383 
C372   H384 
C372   N386 
C375   H381 
C375   H382 
C375   N386 
C378   H385 
C378   N386 
C378   H387 
C388   C389 
C388   C393 
C388   H405 
C389   C390 
C390   C391 
C390   O394 
C391   C392 
C391   H404 
C392   C393 
C393   O399 
O394   C395 
C395   C396 
C395   H408 
C395   H409 
C396   C397 
C396   H412 
C396   H413 
C397   C398 
C397   H414 
C397   H415 
C398   H421 
C398   H422 
C398   H423 
O399   C400 
C400   C401 
C400   H406 
C400   H407 
C401   C402 
C401   H410 
C401   H411 
C402   C403 
C402   H416 
C402   H417 
C403   H418 
C403   H419 
C403   H420 
  
#END  
