data_
_symmetry_cell_setting           triclinic 
_symmetry_space_group_name_H-M   'P 1' 
_symmetry_Int_Tables_number      1 
loop_ 
_symmetry_equiv_pos_site_id 
_symmetry_equiv_pos_as_xyz 
1 x,y,z 
_cell_length_a             16.559336        
_cell_length_b             14.223343        
_cell_length_c             19.109502        
_cell_angle_alpha          90.925488        
_cell_angle_beta           89.394940        
_cell_angle_gamma          89.917666        
loop_  
_atom_site_label   
_atom_site_type_symbol  
_atom_site_fract_x  
_atom_site_fract_y  
_atom_site_fract_z 
 Cu0  Cu     0.000129     -0.013513      0.073820 
 Cu1  Cu     0.000259     -0.014422     -0.065537 
 O2  O    -0.104089      0.055861     -0.066531 
 C3  C    -0.133913      0.085685     -0.008272 
 O4  O    -0.098736      0.077683      0.051937 
 O5  O     0.070037      0.097519     -0.061266 
 C6  C     0.099259      0.125494     -0.002237 
 O7  O     0.076279      0.096404      0.056075 
 O8  O    -0.071469     -0.123877     -0.053289 
 C9  C    -0.094772     -0.148832      0.008069 
 O10  O    -0.070324     -0.123782      0.066799 
 O11  O     0.089487     -0.099683     -0.059371 
 C12  C     0.122633     -0.118534     -0.002504 
 O13  O     0.101309     -0.089141      0.059374 
 Cu14  Cu     0.499108     -0.497423      0.066998 
 Cu15  Cu    -0.493810      0.481822     -0.062731 
 O16  O     0.420834     -0.418269     -0.055095 
 C17  C     0.390330     -0.382785      0.001966 
 O18  O     0.416224     -0.400528      0.064084 
 O19  O    -0.400968     -0.427473     -0.048924 
 C20  C    -0.374808     -0.393761      0.008650 
 O21  O    -0.408179     -0.412114      0.067847 
 O22  O     0.402368      0.392472     -0.065181 
 C23  C     0.376509      0.371469     -0.006429 
 O24  O     0.405813      0.406541      0.047542 
 O25  O    -0.428031      0.370743     -0.056100 
 C26  C    -0.398598      0.351852      0.001237 
 O27  O    -0.420371      0.393845      0.062240 
 C28  C    -0.315940      0.227578     -0.056676 
 C29  C    -0.326114      0.284782      0.001326 
 C30  C    -0.278841      0.265151      0.060302 
 C31  C    -0.220240      0.193982      0.056592 
 C32  C    -0.209292      0.140556     -0.006262 
 C33  C    -0.264027      0.152782     -0.063181 
 O34  O    -0.284591      0.309982      0.121219 
 C35  C    -0.241266      0.393818      0.122995 
 C36  C    -0.206854      0.416471      0.195329 
 C37  C    -0.140902      0.343800      0.208029 
 C38  C    -0.084632      0.358897      0.270001 
 O39  O    -0.254780      0.102192     -0.125084 
 C40  C    -0.269266      0.006275     -0.114464 
 C41  C    -0.310049     -0.046123     -0.176340 
 C42  C    -0.327246     -0.150051     -0.152290 
 C43  C    -0.398697     -0.161331     -0.103200 
 H44  H    -0.185299      0.193321      0.102294 
 H45  H    -0.346936      0.242290     -0.103389 
 H46  H    -0.206826     -0.026820     -0.101489 
 H47  H    -0.310872      0.000389     -0.070886 
 H48  H    -0.194921      0.398136      0.085171 
 H49  H    -0.285216      0.451235      0.112619 
 H50  H    -0.369912     -0.022968     -0.194591 
 H51  H    -0.266469     -0.038511     -0.218719 
 H52  H    -0.176014      0.486923      0.196705 
 H53  H    -0.257485      0.411875      0.234504 
 H54  H    -0.169829      0.274618      0.215557 
 H55  H    -0.097349      0.334515      0.162875 
 H56  H    -0.343356     -0.194528     -0.197935 
 H57  H    -0.271013     -0.182497     -0.139964 
 H58  H    -0.398875     -0.122591     -0.055278 
 H59  H    -0.457498     -0.142242     -0.128088 
 H60  H    -0.401417     -0.235596     -0.086996 
 H61  H    -0.113480      0.381332      0.317281 
 H62  H    -0.045354      0.294117      0.276923 
 H63  H    -0.045365      0.422006      0.257472 
 N64  N     0.005974      0.019543      0.320863 
 C65  C     0.027058     -0.072350      0.291226 
 C66  C    -0.070954      0.043182      0.291371 
 C67  C     0.064159      0.090136      0.294739 
 C68  C    -0.071851      0.027305      0.208444 
 H69  H    -0.119878      0.001188      0.317613 
 H70  H    -0.079461      0.121076      0.301305 
 C71  C     0.046564     -0.067270      0.209502 
 H72  H     0.078047     -0.101369      0.320190 
 H73  H    -0.019192     -0.122751      0.301000 
 C74  C     0.057186      0.100788      0.213336 
 H75  H     0.064925      0.164938      0.319512 
 H76  H     0.126163      0.065510      0.306943 
 H77  H     0.112122     -0.062831      0.202165 
 H78  H     0.020771     -0.133908      0.182934 
 H79  H    -0.110598     -0.031277      0.189234 
 H80  H    -0.094875      0.092023      0.186591 
 H81  H     0.119932      0.109774      0.189466 
 N82  N     0.012060      0.023808      0.182703 
 H83  H     0.024358      0.168401      0.199029 
 C84  C     0.217334      0.188623     -0.061711 
 C85  C     0.166376      0.195302     -0.004749 
 C86  C     0.177302      0.261070      0.049793 
 C87  C     0.248018      0.316998      0.050220 
 C88  C     0.303695      0.307924     -0.007021 
 C89  C     0.288532      0.242745     -0.062506 
 O90  O     0.112657      0.271236      0.096659 
 C91  C     0.114289      0.352658      0.143996 
 C92  C     0.095228      0.445515      0.108613 
 C93  C     0.002736      0.473645      0.101719 
 C94  C    -0.012841     -0.425376      0.076078 
 O95  O     0.344371      0.233410     -0.112433 
 C96  C     0.336300      0.179685     -0.171755 
 C97  C     0.421367      0.141908     -0.182040 
 C98  C     0.454880      0.076377     -0.126492 
 C99  C     0.412051     -0.016950     -0.112318 
 H100  H     0.257414      0.376066      0.087416 
 H101  H     0.204053      0.137879     -0.105545 
 H102  H     0.294409      0.122103     -0.167563 
 H103  H     0.319999      0.210387     -0.221158 
 H104  H     0.066966      0.337241      0.180670 
 H105  H     0.169154      0.354862      0.178478 
 H106  H     0.417779      0.099861     -0.228617 
 H107  H     0.461482      0.198910     -0.191681 
 H108  H     0.121877     -0.496226      0.138468 
 H109  H     0.120776      0.441496      0.055340 
 H110  H    -0.035411      0.428941      0.066840 
 H111  H    -0.025103      0.471381      0.152720 
 H112  H    -0.483493      0.060622     -0.143293 
 H113  H     0.464610      0.116485     -0.075141 
 H114  H     0.346869     -0.005580     -0.106142 
 H115  H     0.426476     -0.060656     -0.157796 
 H116  H     0.425156     -0.049886     -0.062365 
 H117  H    -0.080362     -0.415254      0.069666 
 H118  H     0.007307     -0.367236      0.109177 
 H119  H     0.011575     -0.414144      0.022367 
 C120  C     0.208233     -0.238466     -0.062166 
 C121  C     0.197465     -0.176947     -0.006785 
 C122  C     0.255532     -0.181627      0.053022 
 C123  C     0.314408     -0.251363      0.056023 
 C124  C     0.323474     -0.317407     -0.000803 
 C125  C     0.270381     -0.305877     -0.060214 
 O126  O     0.249901     -0.117752      0.107164 
 C127  C     0.267743     -0.021266      0.087583 
 C128  C     0.360843     -0.016235      0.086912 
 C129  C     0.396433      0.080797      0.075845 
 C130  C     0.487120      0.079615      0.083622 
 O131  O     0.279873     -0.371520     -0.109350 
 C132  C     0.240600     -0.460180     -0.095271 
 C133  C     0.187532     -0.481980     -0.158131 
 C134  C     0.144136      0.415817     -0.157801 
 C135  C     0.083669      0.395939     -0.102164 
 H136  H     0.353686     -0.246403      0.099242 
 H137  H     0.169524     -0.237877     -0.104969 
 H138  H     0.289555      0.487315     -0.087844 
 H139  H     0.201611     -0.464765     -0.045930 
 H140  H     0.238519      0.005348      0.040425 
 H141  H     0.242886      0.017681      0.133378 
 H142  H     0.136824     -0.428385     -0.161318 
 H143  H     0.221087     -0.478481     -0.206414 
 H144  H     0.378719     -0.043643      0.139392 
 H145  H     0.389082     -0.064558      0.044036 
 H146  H     0.376662      0.110767      0.026219 
 H147  H     0.374458      0.128277      0.117410 
 H148  H     0.110669      0.409046     -0.208712 
 H149  H     0.192435      0.365212     -0.164344 
 H150  H     0.063658      0.324044     -0.112491 
 H151  H     0.100674      0.402782     -0.048285 
 H152  H     0.025995      0.432292     -0.108000 
 H153  H    -0.483374      0.027601      0.046216 
 H154  H    -0.485095      0.150477      0.073948 
 H155  H    -0.496656      0.062526      0.137447 
 N156  N     0.485443     -0.494896      0.315606 
 C157  C     0.405854      0.494399      0.283969 
 C158  C    -0.484058     -0.401807      0.286951 
 C159  C    -0.462013      0.430759      0.290056 
 C160  C    -0.479228     -0.399905      0.209328 
 H161  H     0.470341     -0.353502      0.310437 
 H162  H    -0.427518     -0.379988      0.311540 
 C163  C     0.409398      0.499527      0.202649 
 H164  H     0.379208      0.426166      0.296114 
 H165  H     0.368208     -0.454641      0.307914 
 C166  C    -0.460616      0.435550      0.208033 
 H167  H    -0.398653      0.440998      0.309094 
 H168  H    -0.485521      0.362880      0.305506 
 H169  H     0.382094      0.434078      0.179424 
 H170  H     0.367031     -0.448148      0.182252 
 H171  H     0.478833     -0.342458      0.192475 
 H172  H    -0.415980     -0.384823      0.192070 
 H173  H    -0.485147      0.369857      0.191425 
 N174  N     0.491776     -0.487798      0.179198 
 H175  H    -0.399493      0.446236      0.191682 
 C176  C    -0.294493     -0.259570      0.058209 
 C177  C    -0.299224     -0.337584      0.015229 
 C178  C    -0.232930     -0.357835     -0.026685 
 C179  C    -0.165264     -0.299236     -0.034143 
 C180  C    -0.163524     -0.217502      0.008032 
 C181  C    -0.228759     -0.198355      0.054874 
 O182  O    -0.239289     -0.441778     -0.067761 
 C183  C    -0.174977     -0.483051     -0.107518 
 C184  C    -0.158844     -0.423044     -0.169865 
 C185  C    -0.236832     -0.422253     -0.218384 
 C186  C    -0.227358     -0.351777     -0.276926 
 O187  O    -0.228570     -0.122375      0.104039 
 C188  C    -0.304696     -0.072957      0.123777 
 C189  C    -0.308976     -0.015082      0.189376 
 C190  C    -0.303611     -0.073436      0.258499 
 C191  C    -0.377320     -0.136489      0.268190 
 H192  H    -0.105892     -0.311840     -0.064924 
 H193  H    -0.344424     -0.248877      0.095400 
 H194  H    -0.314642     -0.022007      0.081927 
 H195  H    -0.356623     -0.120088      0.119062 
 H196  H    -0.121336      0.496980     -0.072131 
 H197  H    -0.202490      0.452436     -0.124251 
 H198  H    -0.257334      0.036229      0.191759 
 H199  H    -0.366971      0.022787      0.190090 
 H200  H    -0.144169     -0.349511     -0.158523 
 H201  H    -0.111222     -0.454409     -0.198794 
 H202  H    -0.241317     -0.496608     -0.243204 
 H203  H    -0.289589     -0.399772     -0.187321 
 H204  H    -0.246347     -0.108679      0.262787 
 H205  H    -0.305998     -0.016906      0.300496 
 H206  H    -0.380859     -0.187935      0.226350 
 H207  H    -0.371151     -0.174377      0.321843 
 H208  H    -0.435453     -0.098716      0.270774 
 H209  H    -0.279501     -0.346584     -0.312397 
 H210  H    -0.216491     -0.280173     -0.257707 
 H211  H    -0.174550     -0.375047     -0.306598 
 Cu212  Cu     0.015494      0.014355     -0.433653 
 Cu213  Cu     0.013196      0.014651      0.430719 
 O214  O    -0.071180      0.104059      0.437704 
 C215  C    -0.088780      0.147452      0.497929 
 O216  O    -0.044146      0.138019     -0.448627 
 O217  O     0.098543      0.116134      0.450468 
 C218  C     0.139908      0.119331     -0.492830 
 O219  O     0.124974      0.073447     -0.439002 
 O220  O    -0.076180     -0.075349      0.437320 
 C221  C    -0.119401     -0.078240      0.496179 
 O222  O    -0.096384     -0.043079     -0.445199 
 O223  O     0.088479     -0.085353      0.435111 
 C224  C     0.110394     -0.120973      0.493241 
 O225  O     0.073301     -0.111652     -0.449548 
 Cu226  Cu    -0.490257     -0.484448     -0.428513 
 Cu227  Cu    -0.487910     -0.482061      0.434698 
 O228  O     0.432931     -0.371166      0.445461 
 C229  C     0.395131     -0.359613     -0.496134 
 O230  O     0.413004     -0.397752     -0.437144 
 O231  O    -0.396388     -0.394508      0.436162 
 C232  C    -0.384166     -0.351974      0.492326 
 O233  O    -0.413422     -0.375356     -0.447795 
 O234  O     0.418939      0.429073      0.443736 
 C235  C     0.406874      0.385315     -0.499161 
 O236  O     0.441575      0.402137     -0.439881 
 O237  O    -0.411080      0.406868      0.442463 
 C238  C    -0.377758      0.387101      0.498915 
 O239  O    -0.400072      0.420219     -0.442467 
 C240  C    -0.240001      0.343686     -0.450454 
 C241  C    -0.298855      0.331137      0.496232 
 C242  C    -0.284940      0.265507      0.442294 
 C243  C    -0.218056      0.207121      0.443490 
 C244  C    -0.161543      0.215325      0.496040 
 C245  C    -0.170894      0.287239     -0.452531 
 O246  O    -0.335417      0.258332      0.383424 
 C247  C    -0.340329      0.180711      0.335974 
 C248  C    -0.420615      0.156539      0.314014 
 C249  C    -0.478068      0.140774      0.375821 
 C250  C    -0.462124      0.045066      0.414360 
 O251  O    -0.109128      0.311520     -0.408922 
 C252  C    -0.093889      0.409934     -0.393848 
 C253  C    -0.078327      0.463467     -0.459011 
 C254  C    -0.066504     -0.426963     -0.447680 
 C255  C    -0.014331     -0.385969      0.495710 
 H256  H    -0.200504      0.160231      0.395479 
 H257  H    -0.246160      0.400417     -0.406211 
 H258  H    -0.141738      0.439681     -0.358419 
 H259  H    -0.037549      0.411466     -0.362041 
 H260  H    -0.302710      0.190721      0.285683 
 H261  H    -0.315069      0.118206      0.364152 
 H262  H    -0.014550      0.437892     -0.473541 
 H263  H    -0.119176      0.450851      0.490657 
 H264  H    -0.446066      0.214761      0.279463 
 H265  H    -0.419537      0.096614      0.279423 
 H266  H    -0.478579      0.198547      0.414444 
 H267  H     0.457327      0.136718      0.360474 
 H268  H    -0.120979     -0.381437     -0.440619 
 H269  H    -0.033549     -0.412179     -0.400108 
 H270  H     0.044515     -0.419757      0.493738 
 H271  H    -0.045551     -0.391675      0.444800 
 H272  H    -0.002314     -0.309577      0.499834 
 H273  H    -0.398679      0.028905      0.436753 
 H274  H     0.486185      0.028165      0.447724 
 H275  H    -0.464552     -0.006204      0.368972 
 N276  N     0.010659     -0.024759     -0.187525 
 C277  C     0.093955     -0.007583     -0.215815 
 C278  C    -0.015804     -0.112592     -0.221886 
 C279  C    -0.040514      0.055243     -0.207592 
 C280  C    -0.012285     -0.101420     -0.303117 
 H281  H     0.010434     -0.172537     -0.198344 
 H282  H    -0.082001     -0.117624     -0.206849 
 C283  C     0.101817     -0.004053     -0.298025 
 H284  H     0.111901      0.062660     -0.195774 
 H285  H     0.139350     -0.056977     -0.190404 
 C286  C    -0.030583      0.066894     -0.292634 
 H287  H    -0.106011      0.037256     -0.197349 
 H288  H    -0.020218      0.121630     -0.176110 
 H289  H     0.130348      0.064638     -0.311549 
 H290  H     0.140773     -0.063180     -0.317997 
 H291  H     0.023701     -0.157871     -0.328125 
 H292  H    -0.077002     -0.100988     -0.318945 
 H293  H    -0.000224      0.133648     -0.310795 
 N294  N     0.020774     -0.011229     -0.323849 
 H295  H    -0.088974      0.066976     -0.316417 
 C296  C     0.204849      0.266196      0.465664 
 C297  C     0.211030      0.184596     -0.492743 
 C298  C     0.280696      0.169660     -0.452835 
 C299  C     0.348431      0.230239     -0.463371 
 C300  C     0.343726      0.308806      0.493038 
 C301  C     0.275345      0.321953      0.452665 
 O302  O     0.276946      0.099683     -0.405332 
 C303  C     0.339619      0.035151     -0.409445 
 C304  C     0.334492     -0.053671     -0.366998 
 C305  C     0.319583     -0.050574     -0.287264 
 C306  C     0.326312     -0.156210     -0.261041 
 O307  O     0.271374      0.392594      0.406639 
 C308  C     0.250312      0.479047      0.438819 
 C309  C     0.170073     -0.495465      0.410832 
 C310  C     0.165588     -0.478274      0.331328 
 C311  C     0.195000     -0.379314      0.316191 
 H312  H     0.400141      0.215905     -0.428816 
 H313  H     0.147828      0.280206      0.438051 
 H314  H     0.248436      0.462768      0.496442 
 H315  H     0.293922     -0.462620      0.432296 
 H316  H     0.348202      0.014258     -0.464057 
 H317  H     0.390690      0.076308     -0.389394 
 H318  H     0.132560      0.442882      0.424706 
 H319  H     0.144925     -0.428178      0.437605 
 H320  H     0.278203     -0.088998     -0.390655 
 H321  H     0.381608     -0.102268     -0.380664 
 H322  H     0.367173     -0.008544     -0.264574 
 H323  H     0.266180     -0.012400     -0.265715 
 H324  H     0.196116      0.464273      0.301615 
 H325  H     0.102728     -0.490910      0.318491 
 H326  H     0.172739     -0.324736      0.354415 
 H327  H     0.263632     -0.371746      0.315134 
 H328  H     0.184292     -0.353306      0.264982 
 H329  H     0.383633     -0.194298     -0.283825 
 H330  H     0.328797     -0.161686     -0.204028 
 H331  H     0.277476     -0.197661     -0.282647 
 C332  C     0.314451     -0.234609      0.446031 
 C333  C     0.320863     -0.295657     -0.496250 
 C334  C     0.254304     -0.308626     -0.448705 
 C335  C     0.189149     -0.246604     -0.452647 
 C336  C     0.184352     -0.182518      0.492027 
 C337  C     0.247757     -0.175964      0.441933 
 O338  O     0.256215     -0.371590     -0.392356 
 C339  C     0.182636     -0.426894     -0.384071 
 C340  C     0.203426      0.472962     -0.363941 
 C341  C     0.139456      0.395232     -0.362392 
 C342  C     0.168630      0.300092     -0.336766 
 O343  O     0.249132     -0.108986      0.390308 
 C344  C     0.323124     -0.114627      0.343592 
 C345  C     0.310499     -0.043050      0.291462 
 C346  C     0.305007      0.059355      0.329296 
 C347  C     0.285438      0.134875      0.277186 
 H348  H     0.138393     -0.248656     -0.415376 
 H349  H     0.369431     -0.227810      0.416268 
 H350  H     0.373598     -0.091957      0.376750 
 H351  H     0.336649     -0.186884      0.319174 
 H352  H     0.138742     -0.396067     -0.344026 
 H353  H     0.148150     -0.422914     -0.430135 
 H354  H     0.362075     -0.033375      0.255614 
 H355  H     0.258844     -0.053865      0.256634 
 H356  H     0.253783      0.449549     -0.395680 
 H357  H     0.228576      0.470722     -0.309623 
 H358  H     0.085196      0.418675     -0.334301 
 H359  H     0.121730      0.377197     -0.414072 
 H360  H     0.252554      0.059564      0.365756 
 H361  H     0.360603      0.073504      0.359884 
 H362  H     0.230831      0.115945      0.252412 
 H363  H     0.286208      0.204797      0.302470 
 H364  H     0.334732      0.133145      0.237866 
 H365  H     0.225487      0.273221     -0.362402 
 H366  H     0.177208      0.301113     -0.279187 
 H367  H     0.121555      0.240767     -0.349558 
 N368  N    -0.496169      0.489288     -0.177695 
 C369  C    -0.491810     -0.412992     -0.193874 
 C370  C    -0.426117      0.435983     -0.205880 
 C371  C     0.427505      0.448682     -0.205378 
 C372  C    -0.425054      0.450492     -0.287583 
 H373  H    -0.367694      0.460173     -0.185211 
 H374  H    -0.437911      0.361596     -0.194962 
 C375  C    -0.498784     -0.406915     -0.274540 
 H376  H     0.463452     -0.377710     -0.164082 
 H377  H    -0.438800     -0.377679     -0.174398 
 C378  C     0.430222      0.451009     -0.288028 
 H379  H     0.426950      0.378379     -0.187478 
 H380  H     0.377766      0.489883     -0.186719 
 H381  H     0.447645     -0.373401     -0.296737 
 H382  H    -0.445826     -0.362929     -0.290739 
 H383  H    -0.368281      0.492126     -0.299317 
 H384  H    -0.421182      0.377920     -0.310194 
 H385  H     0.378772      0.493247     -0.310214 
 N386  N    -0.496499     -0.498188     -0.307603 
 H387  H     0.420371      0.380151     -0.311178 
 C388  C    -0.315995     -0.210200     -0.453013 
 C389  C    -0.323610     -0.270331      0.489163 
 C390  C    -0.269063     -0.259057      0.428793 
 C391  C    -0.206222     -0.192268      0.432876 
 C392  C    -0.193457     -0.140738      0.494124 
 C393  C    -0.254307     -0.144541     -0.452736 
 O394  O    -0.270803     -0.317933      0.371892 
 C395  C    -0.211121     -0.391854      0.365483 
 C396  C    -0.146453     -0.365121      0.311442 
 C397  C    -0.184018     -0.315600      0.249202 
 C398  C    -0.119389     -0.298793      0.194400 
 O399  O    -0.244427     -0.097004     -0.388243 
 C400  C    -0.281298     -0.005834     -0.390676 
 C401  C    -0.373794      0.003149     -0.366485 
 C402  C    -0.395969      0.096401     -0.334291 
 C403  C    -0.401183      0.177798     -0.384982 
 H404  H    -0.154665     -0.196938      0.394950 
 H405  H    -0.350378     -0.222532     -0.404808 
 H406  H    -0.246961      0.050633     -0.360749 
 H407  H    -0.271051      0.015262     -0.445832 
 H408  H    -0.191511     -0.409978      0.418731 
 H409  H    -0.238147     -0.455163      0.346797 
 H410  H    -0.412700     -0.005285     -0.412659 
 H411  H    -0.380451     -0.051619     -0.329533 
 H412  H    -0.101075     -0.319088      0.336912 
 H413  H    -0.110212     -0.426863      0.297725 
 H414  H    -0.238949     -0.354188      0.233368 
 H415  H    -0.207218     -0.244194      0.273090 
 H416  H    -0.456572      0.083188     -0.309162 
 H417  H    -0.355381      0.121201     -0.292717 
 H418  H    -0.431089      0.164899     -0.436029 
 H419  H    -0.435449      0.233093     -0.359477 
 H420  H    -0.343839      0.206020     -0.394675 
 H421  H    -0.145272     -0.278475      0.143340 
 H422  H    -0.079165     -0.239402      0.214734 
 H423  H    -0.079293     -0.359665      0.185922 
loop_  
_geom_bond_atom_site_label_1  
_geom_bond_atom_site_label_2  
Cu0   Cu1 
Cu0   O4 
Cu0   O7 
Cu0   O10 
Cu0   O13 
Cu0   N82 
Cu1   O2 
Cu1   O5 
Cu1   O8 
Cu1   O11 
Cu1   N276 
O2   C3 
C3   O4 
C3   C32 
O5   C6 
C6   O7 
C6   C85 
O8   C9 
C9   O10 
C9   C180 
O11   C12 
C12   O13 
C12   C121 
Cu14   Cu15 
Cu14   O18 
Cu14   O21 
Cu14   O24 
Cu14   O27 
Cu14   N174 
Cu15   O16 
Cu15   O19 
Cu15   O22 
Cu15   O25 
Cu15   N368 
O16   C17 
C17   O18 
C17   C124 
O19   C20 
C20   O21 
C20   C177 
O22   C23 
C23   O24 
C23   C88 
O25   C26 
C26   O27 
C26   C29 
C28   C29 
C28   C33 
C28   H45 
C29   C30 
C30   C31 
C30   O34 
C31   C32 
C31   H44 
C32   C33 
C33   O39 
O34   C35 
C35   C36 
C35   H48 
C35   H49 
C36   C37 
C36   H52 
C36   H53 
C37   C38 
C37   H54 
C37   H55 
C38   H61 
C38   H62 
C38   H63 
O39   C40 
C40   C41 
C40   H46 
C40   H47 
C41   C42 
C41   H50 
C41   H51 
C42   C43 
C42   H56 
C42   H57 
C43   H58 
C43   H59 
C43   H60 
N64   C65 
N64   C66 
N64   C67 
N64   Cu213 
C65   C71 
C65   H72 
C65   H73 
C66   C68 
C66   H69 
C66   H70 
C67   C74 
C67   H75 
C67   H76 
C68   H79 
C68   H80 
C68   N82 
C71   H77 
C71   H78 
C71   N82 
C74   H81 
C74   N82 
C74   H83 
C84   C85 
C84   C89 
C84   H101 
C85   C86 
C86   C87 
C86   O90 
C87   C88 
C87   H100 
C88   C89 
C89   O95 
O90   C91 
C91   C92 
C91   H104 
C91   H105 
C92   C93 
C92   H108 
C92   H109 
C93   C94 
C93   H110 
C93   H111 
C94   H117 
C94   H118 
C94   H119 
O95   C96 
C96   C97 
C96   H102 
C96   H103 
C97   C98 
C97   H106 
C97   H107 
C98   C99 
C98   H112 
C98   H113 
C99   H114 
C99   H115 
C99   H116 
C120   C121 
C120   C125 
C120   H137 
C121   C122 
C122   C123 
C122   O126 
C123   C124 
C123   H136 
C124   C125 
C125   O131 
O126   C127 
C127   C128 
C127   H140 
C127   H141 
C128   C129 
C128   H144 
C128   H145 
C129   C130 
C129   H146 
C129   H147 
C130   H153 
C130   H154 
C130   H155 
O131   C132 
C132   C133 
C132   H138 
C132   H139 
C133   C134 
C133   H142 
C133   H143 
C134   C135 
C134   H148 
C134   H149 
C135   H150 
C135   H151 
C135   H152 
N156   C157 
N156   C158 
N156   C159 
N156   Cu227 
C157   C163 
C157   H164 
C157   H165 
C158   C160 
C158   H161 
C158   H162 
C159   C166 
C159   H167 
C159   H168 
C160   H171 
C160   H172 
C160   N174 
C163   H169 
C163   H170 
C163   N174 
C166   H173 
C166   N174 
C166   H175 
C176   C177 
C176   C181 
C176   H193 
C177   C178 
C178   C179 
C178   O182 
C179   C180 
C179   H192 
C180   C181 
C181   O187 
O182   C183 
C183   C184 
C183   H196 
C183   H197 
C184   C185 
C184   H200 
C184   H201 
C185   C186 
C185   H202 
C185   H203 
C186   H209 
C186   H210 
C186   H211 
O187   C188 
C188   C189 
C188   H194 
C188   H195 
C189   C190 
C189   H198 
C189   H199 
C190   C191 
C190   H204 
C190   H205 
C191   H206 
C191   H207 
C191   H208 
Cu212   Cu213 
Cu212   O216 
Cu212   O219 
Cu212   O222 
Cu212   O225 
Cu212   N294 
Cu213   O214 
Cu213   O217 
Cu213   O220 
Cu213   O223 
O214   C215 
C215   O216 
C215   C244 
O217   C218 
C218   O219 
C218   C297 
O220   C221 
C221   O222 
C221   C392 
O223   C224 
C224   O225 
C224   C336 
Cu226   Cu227 
Cu226   O230 
Cu226   O233 
Cu226   O236 
Cu226   O239 
Cu226   N386 
Cu227   O228 
Cu227   O231 
Cu227   O234 
Cu227   O237 
O228   C229 
C229   O230 
C229   C333 
O231   C232 
C232   O233 
C232   C389 
O234   C235 
C235   O236 
C235   C300 
O237   C238 
C238   O239 
C238   C241 
C240   C241 
C240   C245 
C240   H257 
C241   C242 
C242   C243 
C242   O246 
C243   C244 
C243   H256 
C244   C245 
C245   O251 
O246   C247 
C247   C248 
C247   H260 
C247   H261 
C248   C249 
C248   H264 
C248   H265 
C249   C250 
C249   H266 
C249   H267 
C250   H273 
C250   H274 
C250   H275 
O251   C252 
C252   C253 
C252   H258 
C252   H259 
C253   C254 
C253   H262 
C253   H263 
C254   C255 
C254   H268 
C254   H269 
C255   H270 
C255   H271 
C255   H272 
N276   C277 
N276   C278 
N276   C279 
C277   C283 
C277   H284 
C277   H285 
C278   C280 
C278   H281 
C278   H282 
C279   C286 
C279   H287 
C279   H288 
C280   H291 
C280   H292 
C280   N294 
C283   H289 
C283   H290 
C283   N294 
C286   H293 
C286   N294 
C286   H295 
C296   C297 
C296   C301 
C296   H313 
C297   C298 
C298   C299 
C298   O302 
C299   C300 
C299   H312 
C300   C301 
C301   O307 
O302   C303 
C303   C304 
C303   H316 
C303   H317 
C304   C305 
C304   H320 
C304   H321 
C305   C306 
C305   H322 
C305   H323 
C306   H329 
C306   H330 
C306   H331 
O307   C308 
C308   C309 
C308   H314 
C308   H315 
C309   C310 
C309   H318 
C309   H319 
C310   C311 
C310   H324 
C310   H325 
C311   H326 
C311   H327 
C311   H328 
C332   C333 
C332   C337 
C332   H349 
C333   C334 
C334   C335 
C334   O338 
C335   C336 
C335   H348 
C336   C337 
C337   O343 
O338   C339 
C339   C340 
C339   H352 
C339   H353 
C340   C341 
C340   H356 
C340   H357 
C341   C342 
C341   H358 
C341   H359 
C342   H365 
C342   H366 
C342   H367 
O343   C344 
C344   C345 
C344   H350 
C344   H351 
C345   C346 
C345   H354 
C345   H355 
C346   C347 
C346   H360 
C346   H361 
C347   H362 
C347   H363 
C347   H364 
N368   C369 
N368   C370 
N368   C371 
C369   C375 
C369   H376 
C369   H377 
C370   C372 
C370   H373 
C370   H374 
C371   C378 
C371   H379 
C371   H380 
C372   H383 
C372   H384 
C372   N386 
C375   H381 
C375   H382 
C375   N386 
C378   H385 
C378   N386 
C378   H387 
C388   C389 
C388   C393 
C388   H405 
C389   C390 
C390   C391 
C390   O394 
C391   C392 
C391   H404 
C392   C393 
C393   O399 
O394   C395 
C395   C396 
C395   H408 
C395   H409 
C396   C397 
C396   H412 
C396   H413 
C397   C398 
C397   H414 
C397   H415 
C398   H421 
C398   H422 
C398   H423 
O399   C400 
C400   C401 
C400   H406 
C400   H407 
C401   C402 
C401   H410 
C401   H411 
C402   C403 
C402   H416 
C402   H417 
C403   H418 
C403   H419 
C403   H420 
  
#END  
