data_
_symmetry_cell_setting           triclinic 
_symmetry_space_group_name_H-M   'P 1' 
_symmetry_Int_Tables_number      1 
loop_ 
_symmetry_equiv_pos_site_id 
_symmetry_equiv_pos_as_xyz 
1 x,y,z 
_cell_length_a             16.198853        
_cell_length_b             14.582333        
_cell_length_c             19.128521        
_cell_angle_alpha          93.145248        
_cell_angle_beta           85.947978        
_cell_angle_gamma          89.461918        
loop_  
_atom_site_label   
_atom_site_type_symbol  
_atom_site_fract_x  
_atom_site_fract_y  
_atom_site_fract_z 
 Cu0  Cu    -0.005510      0.012420      0.062293 
 Cu1  Cu     0.005050      0.009731     -0.072280 
 O2  O    -0.095977      0.088475     -0.058234 
 C3  C    -0.122065      0.122751      0.003076 
 O4  O    -0.093001      0.107525      0.061801 
 O5  O     0.086792      0.115641     -0.063881 
 C6  C     0.122869      0.125903     -0.004902 
 O7  O     0.091611      0.094744      0.051927 
 O8  O    -0.084431     -0.090854     -0.056470 
 C9  C    -0.120048     -0.101517      0.003584 
 O10  O    -0.096735     -0.072664      0.062254 
 O11  O     0.098324     -0.077203     -0.066590 
 C12  C     0.115374     -0.105145     -0.007628 
 O13  O     0.079907     -0.083577      0.054025 
 Cu14  Cu     0.489891     -0.484123      0.060543 
 Cu15  Cu    -0.488219     -0.490250     -0.073057 
 O16  O     0.426366     -0.391555     -0.050155 
 C17  C     0.391935     -0.361383      0.008575 
 O18  O     0.410646     -0.386317      0.068662 
 O19  O    -0.406468     -0.393260     -0.065981 
 C20  C    -0.384481     -0.362931     -0.006762 
 O21  O    -0.411533     -0.388933      0.053082 
 O22  O     0.427616      0.411377     -0.070453 
 C23  C     0.395693      0.386282     -0.012525 
 O24  O     0.407600      0.424984      0.046537 
 O25  O    -0.401588      0.407581     -0.071666 
 C26  C    -0.391301      0.379145     -0.013690 
 O27  O    -0.428973      0.411116      0.043223 
 C28  C    -0.252865      0.165895     -0.053578 
 C29  C    -0.198486      0.182530     -0.001408 
 C30  C    -0.218425      0.248475      0.053090 
 C31  C    -0.285023      0.305371      0.048445 
 C32  C    -0.334420      0.295318     -0.006903 
 C33  C    -0.326459      0.220215     -0.056459 
 O34  O    -0.166536      0.253065      0.105706 
 C35  C    -0.178513      0.328643      0.158948 
 C36  C    -0.092263      0.360357      0.181885 
 C37  C    -0.020239      0.396388      0.134824 
 C38  C    -0.046076      0.477290      0.091238 
 O39  O    -0.387269      0.198417     -0.101785 
 C40  C    -0.467994      0.169916     -0.068821 
 C41  C    -0.457309      0.075183     -0.029096 
 C42  C    -0.452619     -0.004937     -0.082442 
 C43  C    -0.473974     -0.095927     -0.052260 
 H44  H    -0.288099      0.363387      0.082759 
 H45  H    -0.233896      0.116240     -0.096168 
 H46  H    -0.497895      0.216771     -0.026629 
 H47  H     0.487895      0.161001     -0.110792 
 H48  H    -0.211409      0.389385      0.141610 
 H49  H    -0.215813      0.299601      0.201932 
 H50  H    -0.407708      0.072492      0.005273 
 H51  H     0.490116      0.061012      0.002388 
 H52  H    -0.107943      0.417495      0.221223 
 H53  H    -0.066438      0.300352      0.207370 
 H54  H     0.027186      0.423519      0.170149 
 H55  H     0.009887      0.334803      0.104269 
 H56  H    -0.497392      0.014067     -0.121017 
 H57  H    -0.396905     -0.011300     -0.115385 
 H58  H     0.470774     -0.086020     -0.012739 
 H59  H    -0.488197     -0.146893     -0.094620 
 H60  H    -0.426576     -0.125795     -0.021936 
 H61  H    -0.101757      0.454557      0.062760 
 H62  H    -0.065741     -0.469739      0.128590 
 H63  H     0.000750     -0.498601      0.052154 
 N64  N    -0.006119     -0.008047      0.311264 
 C65  C    -0.073924     -0.071464      0.287335 
 C66  C    -0.029292      0.089454      0.292814 
 C67  C     0.072983     -0.035031      0.276742 
 C68  C    -0.029079      0.097131      0.208185 
 H69  H    -0.087953      0.109434      0.316648 
 H70  H     0.014591      0.134343      0.313816 
 C71  C    -0.064814     -0.071009      0.204145 
 H72  H    -0.063777     -0.138735      0.311778 
 H73  H    -0.134073     -0.043632      0.307326 
 C74  C     0.071009     -0.030632      0.197525 
 H75  H     0.120296      0.010875      0.294499 
 H76  H     0.088480     -0.104261      0.296151 
 H77  H    -0.039593     -0.137191      0.186025 
 H78  H    -0.127558     -0.058027      0.183430 
 H79  H    -0.090835      0.113237      0.192848 
 H80  H     0.013322      0.154175      0.192124 
 H81  H     0.083181     -0.103776      0.177038 
 N82  N    -0.009384      0.002831      0.176761 
 H83  H     0.125069      0.008441      0.179304 
 C84  C     0.281660      0.303716      0.048443 
 C85  C     0.332331      0.309822     -0.013800 
 C86  C     0.317063      0.254086     -0.074206 
 C87  C     0.249350      0.188967     -0.070852 
 C88  C     0.199193      0.184518     -0.007646 
 C89  C     0.215386      0.238454      0.053945 
 O90  O     0.367004      0.268931     -0.133242 
 C91  C     0.355569      0.217312     -0.199301 
 C92  C     0.276797      0.240290     -0.233221 
 C93  C     0.257156      0.171327     -0.294907 
 C94  C     0.316679      0.164289     -0.364347 
 O95  O     0.168302      0.231399      0.117841 
 C96  C     0.216116      0.230976      0.177689 
 C97  C     0.174471      0.304453      0.227778 
 C98  C     0.183632      0.295306      0.308702 
 C99  C     0.135913      0.368822      0.354576 
 H100  H     0.227884      0.146749     -0.114130 
 H101  H     0.292706      0.348184      0.095292 
 H102  H     0.203093      0.162967      0.193377 
 H103  H     0.283425      0.244046      0.168086 
 H104  H     0.408963      0.242485     -0.230223 
 H105  H     0.361516      0.145290     -0.196430 
 H106  H     0.199885      0.366140      0.212325 
 H107  H     0.111755      0.306983      0.218653 
 H108  H     0.227986      0.239373     -0.193711 
 H109  H     0.282269      0.307533     -0.245131 
 H110  H     0.254240      0.102577     -0.276000 
 H111  H     0.194641      0.188016     -0.308035 
 H112  H     0.164716      0.227604      0.321467 
 H113  H     0.248220      0.292793      0.321176 
 H114  H     0.068442      0.360096      0.351483 
 H115  H     0.158589      0.358487      0.406547 
 H116  H     0.155902      0.435921      0.335583 
 H117  H     0.320364      0.230115     -0.389563 
 H118  H     0.378358      0.159612     -0.350694 
 H119  H     0.300756      0.110946     -0.402765 
 C120  C     0.269373     -0.311721     -0.049709 
 C121  C     0.314830     -0.302207      0.009691 
 C122  C     0.290624     -0.233323      0.062181 
 C123  C     0.232782     -0.166484      0.049685 
 C124  C     0.183816     -0.177237     -0.007561 
 C125  C     0.200951     -0.251420     -0.057562 
 O126  O     0.317372     -0.231164      0.128147 
 C127  C     0.372617     -0.159410      0.156191 
 C128  C     0.319166     -0.119303      0.219296 
 C129  C     0.365324     -0.052353      0.266593 
 C130  C     0.385836      0.038977      0.232470 
 O131  O     0.157397     -0.271869     -0.115553 
 C132  C     0.075268     -0.304001     -0.103139 
 C133  C     0.073859     -0.399725     -0.068128 
 C134  C     0.129268     -0.467781     -0.113611 
 C135  C     0.087846      0.489092     -0.178122 
 H136  H     0.213424     -0.118708      0.092094 
 H137  H     0.280840     -0.370373     -0.087150 
 H138  H     0.039386     -0.249611     -0.075618 
 H139  H     0.050654     -0.308886     -0.156747 
 H140  H     0.434932     -0.187129      0.159684 
 H141  H     0.373183     -0.102409      0.117476 
 H142  H     0.089199     -0.380170     -0.013291 
 H143  H     0.011239     -0.426505     -0.059336 
 H144  H     0.264914     -0.073907      0.199755 
 H145  H     0.291510     -0.174729      0.246782 
 H146  H     0.328224     -0.029937      0.313440 
 H147  H     0.424095     -0.083896      0.280570 
 H148  H     0.185846     -0.427761     -0.130366 
 H149  H     0.150912      0.471112     -0.083355 
 H150  H     0.059487     -0.457767     -0.209401 
 H151  H     0.138939      0.447511     -0.207380 
 H152  H     0.038235      0.447533     -0.161598 
 H153  H     0.403735      0.090124      0.269000 
 H154  H     0.431236      0.039021      0.187405 
 H155  H     0.329020      0.072499      0.217885 
 N156  N     0.487417      0.479003      0.311468 
 C157  C    -0.439338     -0.470320      0.279854 
 C158  C     0.480060      0.383048      0.281787 
 C159  C     0.418305     -0.463458      0.291557 
 C160  C     0.495433      0.388273      0.197654 
 H161  H    -0.479939      0.328692      0.304609 
 H162  H     0.414089      0.362809      0.302056 
 C163  C    -0.444283     -0.461742      0.198374 
 H164  H    -0.429953     -0.399289      0.304646 
 H165  H    -0.381157      0.485174      0.288990 
 C166  C     0.414174     -0.473368      0.210688 
 H167  H     0.359673     -0.483479      0.325842 
 H168  H     0.430458     -0.390518      0.307015 
 H169  H    -0.460905     -0.388906      0.187655 
 H170  H    -0.385351     -0.484911      0.170721 
 H171  H    -0.438993      0.359871      0.181780 
 H172  H     0.454574      0.342568      0.171569 
 H173  H     0.400032     -0.405988      0.192571 
 N174  N     0.490818      0.479990      0.175277 
 H175  H     0.364310      0.477240      0.202657 
 C176  C    -0.179444     -0.244829     -0.040355 
 C177  C    -0.189023     -0.169329      0.006768 
 C178  C    -0.261684     -0.156346      0.051779 
 C179  C    -0.323641     -0.223335      0.047056 
 C180  C    -0.317473     -0.297516     -0.001597 
 C181  C    -0.246565     -0.307168     -0.047216 
 O182  O    -0.268425     -0.085050      0.102999 
 C183  C    -0.356103     -0.071069      0.141752 
 C184  C    -0.344139     -0.018716      0.215707 
 C185  C    -0.286472      0.064143      0.215941 
 C186  C    -0.288006      0.123201      0.285532 
 O187  O    -0.244404     -0.374968     -0.101685 
 C188  C    -0.172020     -0.398436     -0.147719 
 C189  C    -0.189305     -0.487882     -0.185491 
 C190  C    -0.209637      0.434371     -0.136071 
 C191  C    -0.129140      0.394643     -0.107895 
 H192  H    -0.381994     -0.215759      0.077621 
 H193  H    -0.121675     -0.243014     -0.077225 
 H194  H    -0.160327     -0.344823     -0.185271 
 H195  H    -0.115313     -0.401036     -0.120372 
 H196  H    -0.392338     -0.027533      0.108086 
 H197  H    -0.392505     -0.131778      0.151505 
 H198  H    -0.247198     -0.485249     -0.208991 
 H199  H    -0.137065      0.494231     -0.224324 
 H200  H    -0.408033     -0.001455      0.237386 
 H201  H    -0.327651     -0.069358      0.252299 
 H202  H    -0.226112      0.038536      0.199104 
 H203  H    -0.310356      0.108815      0.177820 
 H204  H    -0.252159      0.451711     -0.090321 
 H205  H    -0.240899      0.378113     -0.165655 
 H206  H    -0.091903      0.358757     -0.150501 
 H207  H    -0.091564      0.444063     -0.081088 
 H208  H    -0.148184      0.340240     -0.070731 
 H209  H    -0.351477      0.158247      0.299410 
 H210  H    -0.274406      0.078528      0.328670 
 H211  H    -0.237120      0.181488      0.277853 
 Cu212  Cu    -0.018906     -0.004781     -0.435576 
 Cu213  Cu    -0.001846     -0.006980      0.426264 
 O214  O    -0.086885      0.093319      0.449819 
 C215  C    -0.126615      0.111262     -0.491123 
 O216  O    -0.115100      0.080612     -0.430406 
 O217  O     0.091100      0.077606      0.437518 
 C218  C     0.093381      0.126950      0.495121 
 O219  O     0.051401      0.109154     -0.450520 
 O220  O    -0.101010     -0.094955      0.430763 
 C221  C    -0.122040     -0.135243      0.488305 
 O222  O    -0.093074     -0.114143     -0.452504 
 O223  O     0.075080     -0.113293      0.430476 
 C224  C     0.109693     -0.117185      0.487383 
 O225  O     0.085492     -0.075823     -0.454599 
 Cu226  Cu     0.495235     -0.499325     -0.443502 
 Cu227  Cu     0.496835      0.487493      0.420710 
 O228  O     0.404312     -0.428498      0.437659 
 C229  C     0.390318     -0.376061      0.494252 
 O230  O     0.433970     -0.380440     -0.450090 
 O231  O    -0.429107     -0.411913      0.433906 
 C232  C    -0.393587     -0.385744      0.488059 
 O233  O    -0.403679     -0.426792     -0.456016 
 O234  O     0.411309      0.387264      0.429476 
 C235  C     0.367751      0.386109      0.489379 
 O236  O     0.382972      0.435538     -0.456357 
 O237  O    -0.418990      0.391155      0.428320 
 C238  C    -0.394756      0.367539      0.489333 
 O239  O    -0.431602      0.396186     -0.453087 
 C240  C    -0.330348      0.239433     -0.452961 
 C241  C    -0.326384      0.298561      0.492951 
 C242  C    -0.254129      0.299804      0.448619 
 C243  C    -0.191055      0.235629      0.453399 
 C244  C    -0.198122      0.174694     -0.495157 
 C245  C    -0.265973      0.176881     -0.446542 
 O246  O    -0.251484      0.371268      0.404216 
 C247  C    -0.180057      0.382970      0.359644 
 C248  C    -0.167152      0.482222      0.350215 
 C249  C    -0.156670     -0.459279      0.419827 
 C250  C    -0.080708     -0.474761      0.457356 
 O251  O    -0.265788      0.121543     -0.393657 
 C252  C    -0.314560      0.039063     -0.400733 
 C253  C    -0.301929     -0.023634     -0.340668 
 C254  C    -0.379286     -0.078690     -0.315751 
 C255  C    -0.364920     -0.149147     -0.264153 
 H256  H    -0.139336      0.229961      0.411821 
 H257  H    -0.388827      0.250692     -0.414963 
 H258  H    -0.379306      0.060888     -0.393762 
 H259  H    -0.310955      0.007396     -0.455307 
 H260  H    -0.122355      0.350320      0.375075 
 H261  H    -0.187746      0.345319      0.308088 
 H262  H    -0.252754     -0.063979     -0.366163 
 H263  H    -0.278307      0.014529     -0.297406 
 H264  H    -0.120948     -0.498619      0.307480 
 H265  H    -0.221711     -0.490654      0.327856 
 H266  H    -0.157881     -0.385926      0.412264 
 H267  H    -0.210055     -0.474211      0.458250 
 H268  H    -0.429434     -0.031617     -0.297773 
 H269  H    -0.399460     -0.118376     -0.363376 
 H270  H    -0.418466     -0.191505     -0.250259 
 H271  H    -0.320469     -0.198918     -0.285942 
 H272  H    -0.343906     -0.116780     -0.213726 
 H273  H    -0.078360     -0.437806     -0.494248 
 H274  H    -0.079180      0.450810      0.458197 
 H275  H    -0.026152     -0.454348      0.424187 
 N276  N    -0.003618      0.023549     -0.180646 
 C277  C     0.001928      0.116141     -0.209789 
 C278  C     0.068248     -0.029224     -0.217321 
 C279  C    -0.075768     -0.026008     -0.208120 
 C280  C     0.064873     -0.041089     -0.298046 
 H281  H     0.120395      0.015073     -0.206619 
 H282  H     0.075954     -0.098063     -0.195648 
 C283  C     0.000055      0.105464     -0.292341 
 H284  H    -0.053906      0.155568     -0.186809 
 H285  H     0.057974      0.149829     -0.188578 
 C286  C    -0.086190     -0.027663     -0.287879 
 H287  H    -0.075858     -0.097999     -0.190378 
 H288  H    -0.129288      0.009304     -0.183103 
 H289  H    -0.052851      0.147399     -0.307883 
 H290  H     0.059695      0.130568     -0.319856 
 H291  H     0.121916     -0.021826     -0.327646 
 H292  H     0.061744     -0.115231     -0.320874 
 H293  H    -0.140916      0.015126     -0.299595 
 N294  N    -0.010974      0.011084     -0.320507 
 H295  H    -0.087168     -0.102664     -0.304093 
 C296  C     0.225634      0.335842     -0.464378 
 C297  C     0.301510      0.314104      0.494719 
 C298  C     0.308008      0.224501      0.458690 
 C299  C     0.240389      0.167510      0.460008 
 C300  C     0.164602      0.192687      0.496010 
 C301  C     0.156647      0.277200     -0.463585 
 O302  O     0.376530      0.181454      0.422207 
 C303  C     0.460902      0.200496      0.444828 
 C304  C    -0.476847      0.122281      0.431504 
 C305  C    -0.498403      0.041317      0.482777 
 C306  C    -0.446447     -0.044627      0.466148 
 O307  O     0.085754      0.297832     -0.427005 
 C308  C     0.075190      0.385803     -0.391668 
 C309  C    -0.003024      0.381056     -0.342574 
 C310  C    -0.081281      0.356140     -0.379706 
 C311  C    -0.157837      0.339427     -0.328800 
 H312  H     0.238487      0.094514      0.436711 
 H313  H     0.226348      0.401460     -0.432716 
 H314  H     0.126575      0.398377     -0.358678 
 H315  H     0.069408      0.444151     -0.424349 
 H316  H     0.483632      0.260043      0.413655 
 H317  H     0.455744      0.224597     -0.497530 
 H318  H     0.013248      0.318432     -0.313038 
 H319  H    -0.014120      0.444884     -0.304098 
 H320  H    -0.459985      0.088176      0.380684 
 H321  H    -0.418293      0.150690      0.451951 
 H322  H    -0.496977      0.069559     -0.461176 
 H323  H     0.430684      0.019458      0.479143 
 H324  H    -0.092921      0.403973     -0.418911 
 H325  H    -0.064845      0.294554     -0.408192 
 H326  H    -0.209982      0.298329     -0.346017 
 H327  H    -0.134954      0.296815     -0.285396 
 H328  H    -0.181678      0.406760     -0.304545 
 H329  H    -0.473672     -0.081550      0.421933 
 H330  H    -0.383635     -0.032717      0.454307 
 H331  H    -0.447433     -0.093832     -0.490010 
 C332  C     0.243185     -0.171725     -0.460635 
 C333  C     0.188737     -0.181985      0.485032 
 C334  C     0.200649     -0.255182      0.435671 
 C335  C     0.264696     -0.317959      0.438575 
 C336  C     0.317679     -0.309020      0.493139 
 C337  C     0.312911     -0.231884     -0.460940 
 O338  O     0.141472     -0.268003      0.390435 
 C339  C     0.159385     -0.319158      0.325615 
 C340  C     0.078933     -0.311260      0.285823 
 C341  C     0.076973     -0.383140      0.225289 
 C342  C     0.149576     -0.374247      0.171557 
 O343  O     0.370897     -0.213177     -0.414176 
 C344  C     0.358692     -0.152949     -0.352106 
 C345  C     0.289007     -0.186501     -0.301505 
 C346  C     0.288853     -0.136951     -0.229935 
 C347  C     0.356741     -0.164363     -0.183444 
 H348  H     0.271220     -0.380795      0.403279 
 H349  H     0.236195     -0.114015     -0.421183 
 H350  H     0.417801     -0.145623     -0.327514 
 H351  H     0.351455     -0.080014     -0.369423 
 H352  H     0.220138     -0.300460      0.294847 
 H353  H     0.170365     -0.387963      0.336553 
 H354  H     0.230071     -0.170186     -0.328050 
 H355  H     0.291478     -0.262198     -0.298860 
 H356  H     0.021462     -0.326571      0.315586 
 H357  H     0.071560     -0.238892      0.269561 
 H358  H     0.087480     -0.453160      0.237967 
 H359  H     0.021884     -0.385283      0.196518 
 H360  H     0.289780     -0.065301     -0.236176 
 H361  H     0.228508     -0.147971     -0.199905 
 H362  H     0.418108     -0.139623     -0.201952 
 H363  H     0.347275     -0.121946     -0.129972 
 H364  H     0.361766     -0.237282     -0.175896 
 H365  H     0.148314     -0.303278      0.158707 
 H366  H     0.208645     -0.386261      0.194495 
 H367  H     0.150389     -0.413868      0.118476 
 N368  N     0.498878     -0.486820     -0.192924 
 C369  C    -0.450868     -0.413509     -0.222833 
 C370  C    -0.464251      0.427201     -0.225772 
 C371  C     0.412515     -0.488241     -0.212597 
 C372  C    -0.465548      0.425073     -0.307101 
 H373  H    -0.399896      0.423502     -0.212592 
 H374  H    -0.497044      0.371392     -0.199616 
 C375  C    -0.453805     -0.411981     -0.303930 
 H376  H    -0.475804     -0.348525     -0.196252 
 H377  H    -0.386737     -0.427196     -0.208156 
 C378  C     0.407408     -0.489000     -0.290876 
 H379  H     0.376953      0.454724     -0.193501 
 H380  H     0.378448     -0.426900     -0.188604 
 H381  H    -0.469317     -0.344388     -0.325373 
 H382  H    -0.390118     -0.428393     -0.321630 
 H383  H    -0.401748      0.422978     -0.331504 
 H384  H    -0.493067      0.358952     -0.330585 
 H385  H     0.371179     -0.429389     -0.307830 
 N386  N     0.492616     -0.493844     -0.328443 
 H387  H     0.370040      0.453412     -0.305820 
 C388  C    -0.281101     -0.313674     -0.451659 
 C389  C    -0.324248     -0.321185      0.488095 
 C390  C    -0.306503     -0.265516      0.428255 
 C391  C    -0.240603     -0.205394      0.431337 
 C392  C    -0.188206     -0.203511      0.487693 
 C393  C    -0.212305     -0.255009     -0.452657 
 O394  O    -0.351598     -0.280361      0.370195 
 C395  C    -0.349683     -0.218434      0.314558 
 C396  C    -0.268319     -0.237921      0.265932 
 C397  C    -0.268847     -0.334097      0.226435 
 C398  C    -0.191856     -0.363781      0.183823 
 O399  O    -0.167754     -0.250174     -0.394387 
 C400  C    -0.153129     -0.325421     -0.352962 
 C401  C    -0.070421     -0.333408     -0.324832 
 C402  C     0.009179     -0.319090     -0.375517 
 C403  C     0.088604     -0.334384     -0.344038 
 H404  H    -0.224066     -0.154602      0.393059 
 H405  H    -0.303931     -0.346429     -0.403709 
 H406  H    -0.199776     -0.320972     -0.306775 
 H407  H    -0.171711     -0.385064     -0.382278 
 H408  H    -0.402137     -0.233166      0.282830 
 H409  H    -0.353802     -0.146380      0.337980 
 H410  H    -0.067446     -0.287458     -0.279769 
 H411  H    -0.066092     -0.406776     -0.307652 
 H412  H    -0.257226     -0.184695      0.222289 
 H413  H    -0.215691     -0.236278      0.297343 
 H414  H    -0.292345     -0.389104      0.264812 
 H415  H    -0.323531     -0.334560      0.192688 
 H416  H     0.003455     -0.365439     -0.420905 
 H417  H     0.007754     -0.252615     -0.394760 
 H418  H     0.092989     -0.403079     -0.325724 
 H419  H     0.142347     -0.323372     -0.387185 
 H420  H     0.102530     -0.285304     -0.299799 
 H421  H    -0.137554     -0.369929      0.210619 
 H422  H    -0.208942     -0.426661      0.153632 
 H423  H    -0.181710     -0.314699      0.138706 
loop_  
_geom_bond_atom_site_label_1  
_geom_bond_atom_site_label_2  
Cu0   Cu1 
Cu0   O4 
Cu0   O7 
Cu0   O10 
Cu0   O13 
Cu0   N82 
Cu1   O2 
Cu1   O5 
Cu1   O8 
Cu1   O11 
Cu1   N276 
O2   C3 
C3   O4 
C3   C29 
O5   C6 
C6   O7 
C6   C88 
O8   C9 
C9   O10 
C9   C177 
O11   C12 
C12   O13 
C12   C124 
Cu14   Cu15 
Cu14   O18 
Cu14   O21 
Cu14   O24 
Cu14   O27 
Cu14   N174 
Cu15   O16 
Cu15   O19 
Cu15   O22 
Cu15   O25 
Cu15   N368 
O16   C17 
C17   O18 
C17   C121 
O19   C20 
C20   O21 
C20   C180 
O22   C23 
C23   O24 
C23   C85 
O25   C26 
C26   O27 
C26   C32 
C28   C29 
C28   C33 
C28   H45 
C29   C30 
C30   C31 
C30   O34 
C31   C32 
C31   H44 
C32   C33 
C33   O39 
O34   C35 
C35   C36 
C35   H48 
C35   H49 
C36   C37 
C36   H52 
C36   H53 
C37   C38 
C37   H54 
C37   H55 
C38   H61 
C38   H62 
C38   H63 
O39   C40 
C40   C41 
C40   H46 
C40   H47 
C41   C42 
C41   H50 
C41   H51 
C42   C43 
C42   H56 
C42   H57 
C43   H58 
C43   H59 
C43   H60 
N64   C65 
N64   C66 
N64   C67 
N64   Cu213 
C65   C71 
C65   H72 
C65   H73 
C66   C68 
C66   H69 
C66   H70 
C67   C74 
C67   H75 
C67   H76 
C68   H79 
C68   H80 
C68   N82 
C71   H77 
C71   H78 
C71   N82 
C74   H81 
C74   N82 
C74   H83 
C84   C85 
C84   C89 
C84   H101 
C85   C86 
C86   C87 
C86   O90 
C87   C88 
C87   H100 
C88   C89 
C89   O95 
O90   C91 
C91   C92 
C91   H104 
C91   H105 
C92   C93 
C92   H108 
C92   H109 
C93   C94 
C93   H110 
C93   H111 
C94   H117 
C94   H118 
C94   H119 
O95   C96 
C96   C97 
C96   H102 
C96   H103 
C97   C98 
C97   H106 
C97   H107 
C98   C99 
C98   H112 
C98   H113 
C99   H114 
C99   H115 
C99   H116 
C120   C121 
C120   C125 
C120   H137 
C121   C122 
C122   C123 
C122   O126 
C123   C124 
C123   H136 
C124   C125 
C125   O131 
O126   C127 
C127   C128 
C127   H140 
C127   H141 
C128   C129 
C128   H144 
C128   H145 
C129   C130 
C129   H146 
C129   H147 
C130   H153 
C130   H154 
C130   H155 
O131   C132 
C132   C133 
C132   H138 
C132   H139 
C133   C134 
C133   H142 
C133   H143 
C134   C135 
C134   H148 
C134   H149 
C135   H150 
C135   H151 
C135   H152 
N156   C157 
N156   C158 
N156   C159 
N156   Cu227 
C157   C163 
C157   H164 
C157   H165 
C158   C160 
C158   H161 
C158   H162 
C159   C166 
C159   H167 
C159   H168 
C160   H171 
C160   H172 
C160   N174 
C163   H169 
C163   H170 
C163   N174 
C166   H173 
C166   N174 
C166   H175 
C176   C177 
C176   C181 
C176   H193 
C177   C178 
C178   C179 
C178   O182 
C179   C180 
C179   H192 
C180   C181 
C181   O187 
O182   C183 
C183   C184 
C183   H196 
C183   H197 
C184   C185 
C184   H200 
C184   H201 
C185   C186 
C185   H202 
C185   H203 
C186   H209 
C186   H210 
C186   H211 
O187   C188 
C188   C189 
C188   H194 
C188   H195 
C189   C190 
C189   H198 
C189   H199 
C190   C191 
C190   H204 
C190   H205 
C191   H206 
C191   H207 
C191   H208 
Cu212   Cu213 
Cu212   O216 
Cu212   O219 
Cu212   O222 
Cu212   O225 
Cu212   N294 
Cu213   O214 
Cu213   O217 
Cu213   O220 
Cu213   O223 
O214   C215 
C215   O216 
C215   C244 
O217   C218 
C218   O219 
C218   C300 
O220   C221 
C221   O222 
C221   C392 
O223   C224 
C224   O225 
C224   C333 
Cu226   Cu227 
Cu226   O230 
Cu226   O233 
Cu226   O236 
Cu226   O239 
Cu226   N386 
Cu227   O228 
Cu227   O231 
Cu227   O234 
Cu227   O237 
O228   C229 
C229   O230 
C229   C336 
O231   C232 
C232   O233 
C232   C389 
O234   C235 
C235   O236 
C235   C297 
O237   C238 
C238   O239 
C238   C241 
C240   C241 
C240   C245 
C240   H257 
C241   C242 
C242   C243 
C242   O246 
C243   C244 
C243   H256 
C244   C245 
C245   O251 
O246   C247 
C247   C248 
C247   H260 
C247   H261 
C248   C249 
C248   H264 
C248   H265 
C249   C250 
C249   H266 
C249   H267 
C250   H273 
C250   H274 
C250   H275 
O251   C252 
C252   C253 
C252   H258 
C252   H259 
C253   C254 
C253   H262 
C253   H263 
C254   C255 
C254   H268 
C254   H269 
C255   H270 
C255   H271 
C255   H272 
N276   C277 
N276   C278 
N276   C279 
C277   C283 
C277   H284 
C277   H285 
C278   C280 
C278   H281 
C278   H282 
C279   C286 
C279   H287 
C279   H288 
C280   H291 
C280   H292 
C280   N294 
C283   H289 
C283   H290 
C283   N294 
C286   H293 
C286   N294 
C286   H295 
C296   C297 
C296   C301 
C296   H313 
C297   C298 
C298   C299 
C298   O302 
C299   C300 
C299   H312 
C300   C301 
C301   O307 
O302   C303 
C303   C304 
C303   H316 
C303   H317 
C304   C305 
C304   H320 
C304   H321 
C305   C306 
C305   H322 
C305   H323 
C306   H329 
C306   H330 
C306   H331 
O307   C308 
C308   C309 
C308   H314 
C308   H315 
C309   C310 
C309   H318 
C309   H319 
C310   C311 
C310   H324 
C310   H325 
C311   H326 
C311   H327 
C311   H328 
C332   C333 
C332   C337 
C332   H349 
C333   C334 
C334   C335 
C334   O338 
C335   C336 
C335   H348 
C336   C337 
C337   O343 
O338   C339 
C339   C340 
C339   H352 
C339   H353 
C340   C341 
C340   H356 
C340   H357 
C341   C342 
C341   H358 
C341   H359 
C342   H365 
C342   H366 
C342   H367 
O343   C344 
C344   C345 
C344   H350 
C344   H351 
C345   C346 
C345   H354 
C345   H355 
C346   C347 
C346   H360 
C346   H361 
C347   H362 
C347   H363 
C347   H364 
N368   C369 
N368   C370 
N368   C371 
C369   C375 
C369   H376 
C369   H377 
C370   C372 
C370   H373 
C370   H374 
C371   C378 
C371   H379 
C371   H380 
C372   H383 
C372   H384 
C372   N386 
C375   H381 
C375   H382 
C375   N386 
C378   H385 
C378   N386 
C378   H387 
C388   C389 
C388   C393 
C388   H405 
C389   C390 
C390   C391 
C390   O394 
C391   C392 
C391   H404 
C392   C393 
C393   O399 
O394   C395 
C395   C396 
C395   H408 
C395   H409 
C396   C397 
C396   H412 
C396   H413 
C397   C398 
C397   H414 
C397   H415 
C398   H421 
C398   H422 
C398   H423 
O399   C400 
C400   C401 
C400   H406 
C400   H407 
C401   C402 
C401   H410 
C401   H411 
C402   C403 
C402   H416 
C402   H417 
C403   H418 
C403   H419 
C403   H420 
  
#END  
