data_
_symmetry_cell_setting           triclinic 
_symmetry_space_group_name_H-M   'P 1' 
_symmetry_Int_Tables_number      1 
loop_ 
_symmetry_equiv_pos_site_id 
_symmetry_equiv_pos_as_xyz 
1 x,y,z 
_cell_length_a             15.514409        
_cell_length_b             15.264554        
_cell_length_c             18.989543        
_cell_angle_alpha          91.257072        
_cell_angle_beta           92.421841        
_cell_angle_gamma          89.970858        
loop_  
_atom_site_label   
_atom_site_type_symbol  
_atom_site_fract_x  
_atom_site_fract_y  
_atom_site_fract_z 
 Cu0  Cu     0.004400     -0.000864      0.072932 
 Cu1  Cu    -0.001928      0.000528     -0.063743 
 O2  O    -0.101832      0.079788     -0.051288 
 C3  C    -0.115534      0.117926      0.007550 
 O4  O    -0.076315      0.100655      0.065966 
 O5  O     0.073787      0.103439     -0.051309 
 C6  C     0.115226      0.120324      0.006586 
 O7  O     0.105412      0.081109      0.064396 
 O8  O    -0.080234     -0.101240     -0.059604 
 C9  C    -0.115140     -0.118617     -0.002118 
 O10  O    -0.095244     -0.082856      0.057776 
 O11  O     0.100583     -0.077777     -0.054788 
 C12  C     0.116340     -0.118624      0.002136 
 O13  O     0.081364     -0.103599      0.060683 
 Cu14  Cu    -0.498328      0.499796      0.063935 
 Cu15  Cu     0.495319     -0.498812     -0.072740 
 O16  O     0.418396     -0.396037     -0.060467 
 C17  C     0.383452     -0.380987     -0.001909 
 O18  O     0.399210     -0.421843      0.055010 
 O19  O    -0.404989     -0.416874     -0.057599 
 C20  C    -0.385050     -0.381133      0.002294 
 O21  O    -0.419959     -0.398484      0.059785 
 O22  O     0.394283      0.419244     -0.064205 
 C23  C     0.384467      0.380029     -0.006396 
 O24  O     0.425897      0.396927      0.051501 
 O25  O    -0.424001      0.399632     -0.065785 
 C26  C    -0.384773      0.382357     -0.007373 
 O27  O    -0.398470      0.420485      0.051469 
 C28  C    -0.228230      0.200771     -0.059237 
 C29  C    -0.184014      0.187928      0.005649 
 C30  C    -0.204928      0.238149      0.065464 
 C31  C    -0.272018      0.299575      0.059393 
 C32  C    -0.316281      0.312368     -0.005479 
 C33  C    -0.295401      0.262110     -0.065283 
 O34  O    -0.159656      0.225508      0.128065 
 C35  C    -0.172352      0.284429      0.186678 
 C36  C    -0.110381      0.258502      0.246895 
 C37  C    -0.115871      0.317893      0.312843 
 C38  C    -0.055712      0.290234      0.374463 
 O39  O    -0.340727      0.274700     -0.127868 
 C40  C    -0.327993      0.215804     -0.186489 
 C41  C    -0.389992      0.241699     -0.246698 
 C42  C    -0.384461      0.182330     -0.312656 
 C43  C    -0.444625      0.209973     -0.374277 
 H44  H    -0.289070      0.338588      0.105581 
 H45  H    -0.211152      0.161785     -0.105432 
 H46  H    -0.260752      0.220530     -0.202596 
 H47  H    -0.340243      0.148025     -0.170640 
 H48  H    -0.160045      0.352194      0.170824 
 H49  H    -0.239601      0.279761      0.202778 
 H50  H    -0.456498      0.241011     -0.228558 
 H51  H    -0.376305      0.309567     -0.260974 
 H52  H    -0.124120      0.190649      0.261181 
 H53  H    -0.043872      0.259135      0.228757 
 H54  H    -0.100362      0.385517      0.298888 
 H55  H    -0.182779      0.318485      0.330125 
 H56  H    -0.317550      0.181779     -0.329930 
 H57  H    -0.399938      0.114693     -0.298713 
 H58  H    -0.437859      0.166364     -0.420546 
 H59  H     0.487547      0.208522     -0.360301 
 H60  H    -0.430310      0.276835     -0.390483 
 H61  H    -0.062449      0.333859      0.420726 
 H62  H    -0.070061      0.223385      0.390681 
 H63  H     0.012115      0.291642      0.360480 
 N64  N    -0.004807     -0.013449      0.323466 
 C65  C     0.031708     -0.096220      0.295633 
 C66  C    -0.093245     -0.004011      0.292284 
 C67  C     0.048382      0.059976      0.299814 
 C68  C    -0.091873     -0.002458      0.210068 
 H69  H    -0.133152     -0.058763      0.309398 
 H70  H    -0.122371      0.056525      0.313185 
 C71  C     0.032162     -0.095935      0.213275 
 H72  H     0.097870     -0.104036      0.318067 
 H73  H    -0.006161     -0.151821      0.313938 
 C74  C     0.050581      0.060003      0.217692 
 H75  H     0.021717      0.122272      0.319709 
 H76  H     0.114297      0.054205      0.323424 
 H77  H     0.098345     -0.105139      0.195387 
 H78  H    -0.006781     -0.150504      0.189906 
 H79  H    -0.132276     -0.055633      0.186351 
 H80  H    -0.119246      0.059332      0.190189 
 H81  H     0.117460      0.052406      0.200943 
 N82  N    -0.002656     -0.012323      0.186135 
 H83  H     0.026775      0.122899      0.197006 
 C84  C     0.240368      0.321208     -0.045832 
 C85  C     0.316746      0.310004     -0.005091 
 C86  C     0.327769      0.238109      0.039526 
 C87  C     0.259399      0.179032      0.045926 
 C88  C     0.182969      0.190322      0.005272 
 C89  C     0.171909      0.262277     -0.039274 
 O90  O     0.405711      0.229242      0.075453 
 C91  C     0.430677      0.145503      0.102355 
 C92  C    -0.472973      0.149517      0.121366 
 C93  C    -0.435234      0.062530      0.147920 
 C94  C    -0.338078      0.067120      0.166374 
 O95  O     0.093906      0.271219     -0.075091 
 C96  C     0.068988      0.354945     -0.102042 
 C97  C    -0.027388      0.350985     -0.120960 
 C98  C    -0.065109      0.437961     -0.147554 
 C99  C    -0.162281      0.433398     -0.165946 
 H100  H     0.266584      0.123060      0.080538 
 H101  H     0.233200      0.377132     -0.080493 
 H102  H     0.083384      0.406577     -0.061774 
 H103  H     0.106067      0.368556     -0.148809 
 H104  H     0.393543      0.131790      0.149071 
 H105  H     0.416386      0.093910      0.062032 
 H106  H    -0.039911      0.299117     -0.161350 
 H107  H    -0.062029      0.331190     -0.074334 
 H108  H    -0.438280      0.169401      0.074791 
 H109  H    -0.460541      0.201339      0.161809 
 H110  H    -0.469502      0.042429      0.194476 
 H111  H    -0.447533      0.010713      0.107494 
 H112  H    -0.052750      0.489815     -0.107169 
 H113  H    -0.030875      0.457993     -0.194148 
 H114  H    -0.186810      0.496756     -0.184545 
 H115  H    -0.177187      0.383899     -0.207583 
 H116  H    -0.198743      0.416368     -0.119740 
 H117  H    -0.313542      0.003758      0.184955 
 H118  H    -0.301581      0.084201      0.120199 
 H119  H    -0.323228      0.116593      0.208042 
 C120  C     0.239183     -0.330776      0.032638 
 C121  C     0.315984     -0.311065      0.000361 
 C122  C     0.328569     -0.229522     -0.030343 
 C123  C     0.260710     -0.168718     -0.032256 
 C124  C     0.183849     -0.188504     -0.000101 
 C125  C     0.171227     -0.270090      0.030515 
 O126  O     0.407858     -0.212063     -0.055944 
 C127  C     0.431732     -0.122149     -0.063954 
 C128  C    -0.470841     -0.114531     -0.053994 
 C129  C    -0.438298     -0.019812     -0.058680 
 C130  C    -0.341392     -0.009747     -0.041363 
 O131  O     0.091886     -0.287610      0.055991 
 C132  C     0.068120     -0.377533      0.064095 
 C133  C    -0.029310     -0.385233      0.054223 
 C134  C    -0.061782     -0.479964      0.059006 
 C135  C    -0.158701     -0.490098      0.041781 
 H136  H     0.267925     -0.105481     -0.057248 
 H137  H     0.231980     -0.393978      0.057686 
 H138  H     0.099114     -0.419865      0.024805 
 H139  H     0.090388     -0.397904      0.117092 
 H140  H     0.409543     -0.101696     -0.116949 
 H141  H     0.400742     -0.079823     -0.024660 
 H142  H    -0.060082     -0.343330      0.093763 
 H143  H    -0.049743     -0.359131      0.002471 
 H144  H    -0.450496     -0.140703     -0.002246 
 H145  H    -0.440046     -0.156416     -0.093532 
 H146  H    -0.453497      0.004668     -0.111901 
 H147  H    -0.473862      0.022556     -0.022320 
 H148  H    -0.026244      0.477652      0.022641 
 H149  H    -0.046497      0.495621      0.112235 
 H150  H    -0.177996      0.440805      0.042663 
 H151  H    -0.197409     -0.454140      0.079911 
 H152  H    -0.176588     -0.465892     -0.010942 
 H153  H    -0.322050      0.059341     -0.042183 
 H154  H    -0.323589     -0.034014      0.011358 
 H155  H    -0.302655     -0.045690     -0.079481 
 N156  N     0.491784      0.492515      0.312638 
 C157  C    -0.444236      0.429504      0.285961 
 C158  C     0.406383      0.467978      0.281273 
 C159  C    -0.486884     -0.418999      0.288662 
 C160  C     0.406839      0.469591      0.199128 
 H161  H     0.390417      0.401845      0.298767 
 H162  H     0.357327     -0.486885      0.301717 
 C163  C    -0.443161      0.431305      0.203918 
 H164  H    -0.380141      0.445796      0.309745 
 H165  H    -0.460353      0.363303      0.303523 
 C166  C    -0.486313     -0.417512      0.206611 
 H167  H     0.465649     -0.372008      0.308628 
 H168  H    -0.423708     -0.399076      0.312217 
 H169  H    -0.378539      0.449295      0.186999 
 H170  H    -0.457962      0.365903      0.180654 
 H171  H     0.390088      0.404561      0.176217 
 H172  H     0.358208     -0.484056      0.178053 
 H173  H    -0.422807     -0.396896      0.189417 
 N174  N     0.492897      0.494959      0.175911 
 H175  H     0.466643     -0.369800      0.185375 
 C176  C    -0.291049     -0.282665     -0.061997 
 C177  C    -0.314904     -0.313156      0.003358 
 C178  C    -0.273073     -0.281364      0.065936 
 C179  C    -0.209010     -0.217220      0.062162 
 C180  C    -0.185224     -0.186659     -0.003188 
 C181  C    -0.227087     -0.218415     -0.065762 
 O182  O    -0.294670     -0.312782      0.129787 
 C183  C    -0.229367     -0.312727      0.185804 
 C184  C    -0.255269     -0.381216      0.237576 
 C185  C    -0.184223     -0.407189      0.291692 
 C186  C    -0.213840     -0.480696      0.338838 
 O187  O    -0.205547     -0.186930     -0.129605 
 C188  C    -0.270871     -0.186996     -0.185604 
 C189  C    -0.245007     -0.118485     -0.237373 
 C190  C    -0.316063     -0.092549     -0.291492 
 C191  C    -0.286463     -0.019057     -0.338661 
 H192  H    -0.177725     -0.191189      0.110725 
 H193  H    -0.322302     -0.308720     -0.110564 
 H194  H    -0.274889     -0.252474     -0.211150 
 H195  H    -0.334102     -0.171002     -0.164535 
 H196  H    -0.166131     -0.328751      0.164755 
 H197  H    -0.225336     -0.247244      0.211339 
 H198  H    -0.223478     -0.059190     -0.207560 
 H199  H    -0.189314     -0.143401     -0.265605 
 H200  H    -0.310949     -0.356264      0.265808 
 H201  H    -0.276833     -0.440502      0.207766 
 H202  H    -0.126597     -0.428646      0.264088 
 H203  H    -0.164815     -0.349391      0.324334 
 H204  H    -0.335462     -0.150364     -0.324118 
 H205  H    -0.373691     -0.071092     -0.263890 
 H206  H    -0.338035      0.002176     -0.375795 
 H207  H    -0.265613      0.038691     -0.306935 
 H208  H    -0.231630     -0.040051     -0.369666 
 H209  H    -0.162276      0.498052      0.375972 
 H210  H    -0.268678     -0.459710      0.369842 
 H211  H    -0.234690      0.461570      0.307095 
 Cu212  Cu     0.002094      0.002147     -0.425176 
 Cu213  Cu    -0.004236     -0.003085      0.438047 
 O214  O    -0.107096      0.074165      0.446318 
 C215  C    -0.118601      0.115940     -0.495950 
 O216  O    -0.077942      0.102547     -0.437575 
 O217  O     0.074310      0.100695      0.453795 
 C218  C     0.115037      0.119382     -0.487941 
 O219  O     0.101385      0.083843     -0.429506 
 O220  O    -0.080156     -0.106818      0.443983 
 C221  C    -0.115788     -0.119840     -0.497877 
 O222  O    -0.099271     -0.078647     -0.439806 
 O223  O     0.097621     -0.080450      0.451063 
 C224  C     0.116114     -0.117626     -0.490683 
 O225  O     0.081739     -0.099504     -0.432444 
 Cu226  Cu    -0.496066     -0.496701     -0.437860 
 Cu227  Cu     0.497610      0.498065      0.425363 
 O228  O     0.417965     -0.400283      0.432627 
 C229  C     0.383583     -0.382165      0.490864 
 O230  O     0.402074     -0.419340     -0.450882 
 O231  O    -0.401029     -0.421140      0.439995 
 C232  C    -0.384520     -0.379941      0.498065 
 O233  O    -0.420154     -0.392963     -0.443796 
 O234  O     0.398320      0.416371      0.429693 
 C235  C     0.384668      0.380830      0.488127 
 O236  O     0.425391      0.399518     -0.453607 
 O237  O    -0.422352      0.397663      0.437764 
 C238  C    -0.381700      0.384266      0.496142 
 O239  O    -0.393206      0.426046     -0.446128 
 C240  C    -0.241828      0.325666     -0.456262 
 C241  C    -0.313992      0.314067      0.497608 
 C242  C    -0.323567      0.238327      0.454592 
 C243  C    -0.258521      0.174486      0.456510 
 C244  C    -0.186319      0.186127     -0.497408 
 C245  C    -0.176712      0.261897     -0.454433 
 O246  O    -0.397109      0.230082      0.412453 
 C247  C    -0.427700      0.144461      0.391421 
 C248  C     0.477691      0.153916      0.367936 
 C249  C     0.433567      0.066876      0.345696 
 C250  C     0.337846      0.077708      0.324017 
 O251  O    -0.103116      0.270170     -0.412364 
 C252  C    -0.072592      0.355784     -0.391248 
 C253  C     0.022048      0.346363     -0.367845 
 C254  C     0.066113      0.433380     -0.345455 
 C255  C     0.161864      0.422572     -0.323866 
 H256  H    -0.264422      0.116030      0.422478 
 H257  H    -0.235940      0.384100     -0.422203 
 H258  H    -0.080023      0.400583     -0.435842 
 H259  H    -0.111044      0.381276     -0.347831 
 H260  H    -0.389223      0.118842      0.348065 
 H261  H    -0.420360      0.099746      0.436077 
 H262  H     0.027746      0.300400     -0.323937 
 H263  H     0.057274      0.315844     -0.411250 
 H264  H     0.442449      0.184609      0.411257 
 H265  H     0.472083      0.199740      0.323930 
 H266  H     0.467729      0.036507      0.301810 
 H267  H     0.439733      0.020787      0.389410 
 H268  H     0.059855      0.479611     -0.389065 
 H269  H     0.031973      0.463566     -0.301480 
 H270  H     0.191444      0.485535     -0.307477 
 H271  H     0.170659      0.377599     -0.279720 
 H272  H     0.198195      0.396140     -0.368013 
 H273  H     0.308228      0.014725      0.307737 
 H274  H     0.301491      0.104312      0.368086 
 H275  H     0.329134      0.122546      0.279774 
 N276  N     0.006829      0.005326     -0.175721 
 C277  C    -0.013948     -0.082212     -0.206410 
 C278  C    -0.057126      0.068964     -0.203735 
 C279  C     0.092880      0.030704     -0.198944 
 C280  C    -0.056075      0.070728     -0.285780 
 H281  H    -0.121741      0.050982     -0.186797 
 H282  H    -0.042319      0.134377     -0.180494 
 C283  C    -0.013353     -0.080749     -0.288461 
 H284  H     0.033090     -0.129919     -0.185156 
 H285  H    -0.077461     -0.102820     -0.189226 
 C286  C     0.093324      0.032329     -0.281090 
 H287  H     0.109634      0.095729     -0.176027 
 H288  H     0.141514     -0.015653     -0.177879 
 H289  H     0.034156     -0.127710     -0.308405 
 H290  H    -0.076506     -0.100727     -0.312026 
 H291  H    -0.120166      0.054383     -0.309547 
 H292  H    -0.040007      0.136931     -0.303366 
 H293  H     0.142405     -0.012772     -0.301542 
 N294  N     0.007934      0.007743     -0.312450 
 H295  H     0.109243      0.098476     -0.298580 
 C296  C     0.303532      0.276269     -0.442863 
 C297  C     0.315029      0.312236      0.491030 
 C298  C     0.261207      0.285763      0.432872 
 C299  C     0.196198      0.223916      0.443042 
 C300  C     0.184682      0.187970     -0.490846 
 C301  C     0.238491      0.214459     -0.432683 
 O302  O     0.271726      0.319472      0.367262 
 C303  C     0.204474      0.303820      0.313858 
 C304  C     0.221651      0.355059      0.248331 
 C305  C     0.149858      0.346093      0.190379 
 C306  C     0.165998      0.402471      0.126466 
 O307  O     0.227956      0.180778     -0.367066 
 C308  C     0.295217      0.196420     -0.313668 
 C309  C     0.278035      0.145204     -0.248129 
 C310  C     0.349846      0.154150     -0.190191 
 C311  C     0.333699      0.097792     -0.126268 
 H312  H     0.154329      0.202305      0.398407 
 H313  H     0.345411      0.297870     -0.398231 
 H314  H     0.357153      0.175657     -0.334804 
 H315  H     0.298437      0.266956     -0.300202 
 H316  H     0.201280      0.233286      0.300380 
 H317  H     0.142528      0.324554      0.334993 
 H318  H     0.216939      0.167978     -0.226661 
 H319  H     0.269711      0.075434     -0.262869 
 H320  H     0.229945      0.424831      0.263080 
 H321  H     0.282762      0.332318      0.226870 
 H322  H     0.143787      0.276885      0.173119 
 H323  H     0.087540      0.364482      0.212150 
 H324  H     0.412150      0.135726     -0.211972 
 H325  H     0.355953      0.223358     -0.172941 
 H326  H     0.385266      0.106519     -0.085218 
 H327  H     0.272392      0.115296     -0.102716 
 H328  H     0.330392      0.027911     -0.141157 
 H329  H     0.114446      0.393725      0.085406 
 H330  H     0.169265      0.472351      0.141363 
 H331  H     0.227320      0.385003      0.102924 
 C332  C     0.228303     -0.195616      0.444011 
 C333  C     0.184605     -0.187325     -0.493117 
 C334  C     0.205575     -0.242058     -0.436310 
 C335  C     0.271370     -0.304199     -0.443841 
 C336  C     0.315087     -0.312470      0.493294 
 C337  C     0.294133     -0.257722      0.436494 
 O338  O     0.161893     -0.234226     -0.375062 
 C339  C     0.177179     -0.297975     -0.321303 
 C340  C     0.117688     -0.279528     -0.261152 
 C341  C     0.125895     -0.346000     -0.201591 
 C342  C     0.062666     -0.328702     -0.142916 
 O343  O     0.337839     -0.265529      0.375257 
 C344  C     0.322554     -0.201770      0.321503 
 C345  C     0.382073     -0.220181      0.261365 
 C346  C     0.373854     -0.153705      0.201807 
 C347  C     0.437117     -0.170954      0.143149 
 H348  H     0.288124     -0.347402     -0.400378 
 H349  H     0.211538     -0.152425      0.400542 
 H350  H     0.254696     -0.205659      0.302029 
 H351  H     0.334911     -0.135794      0.344435 
 H352  H     0.164794     -0.363953     -0.344220 
 H353  H     0.245045     -0.294102     -0.301846 
 H354  H     0.449405     -0.221235      0.282303 
 H355  H     0.367772     -0.286114      0.239263 
 H356  H     0.132022     -0.213598     -0.239058 
 H357  H     0.050352     -0.278448     -0.282076 
 H358  H     0.115137     -0.412579     -0.223635 
 H359  H     0.192375     -0.344885     -0.178728 
 H360  H     0.307383     -0.154856      0.178926 
 H361  H     0.384564     -0.087122      0.223859 
 H362  H     0.429363     -0.122218      0.101646 
 H363  H    -0.495515     -0.168049      0.163485 
 H364  H     0.426739     -0.235949      0.118144 
 H365  H     0.070404     -0.377440     -0.101413 
 H366  H     0.073097     -0.263712     -0.117914 
 H367  H    -0.004710     -0.331563     -0.163233 
 N368  N    -0.497639     -0.487407     -0.185948 
 C369  C     0.449117      0.440264     -0.217494 
 C370  C     0.467546     -0.403798     -0.213097 
 C371  C    -0.408425     -0.497284     -0.209885 
 C372  C     0.467997     -0.403529     -0.295456 
 H373  H     0.401364     -0.394588     -0.195208 
 H374  H    -0.493508     -0.349227     -0.189736 
 C375  C     0.451306      0.440276     -0.299617 
 H376  H     0.472924      0.377371     -0.196803 
 H377  H     0.382241      0.447867     -0.200741 
 C378  C    -0.407060     -0.495752     -0.292102 
 H379  H    -0.368018     -0.444105     -0.186181 
 H380  H    -0.381052      0.440931     -0.189998 
 H381  H     0.477961      0.377974     -0.319508 
 H382  H     0.385390      0.446052     -0.323223 
 H383  H     0.401835     -0.395707     -0.317889 
 H384  H    -0.494128     -0.347937     -0.313768 
 H385  H    -0.377944      0.443701     -0.312995 
 N386  N    -0.495499     -0.486309     -0.323281 
 H387  H    -0.367146     -0.441012     -0.309227 
 C388  C    -0.229592     -0.339575      0.493765 
 C389  C    -0.315279     -0.311921      0.498226 
 C390  C    -0.336975     -0.223012     -0.495869 
 C391  C    -0.270725     -0.160199     -0.493604 
 C392  C    -0.185035     -0.187854     -0.498040 
 C393  C    -0.163338     -0.276766      0.496076 
 O394  O    -0.423099     -0.203123     -0.494241 
 C395  C    -0.448012     -0.115101     -0.477341 
 C396  C     0.454320     -0.110801     -0.474857 
 C397  C     0.421573     -0.021532     -0.448195 
 C398  C     0.323040     -0.016316     -0.447418 
 O399  O    -0.077214     -0.296661      0.494472 
 C400  C    -0.052306     -0.384693      0.477599 
 C401  C     0.045362     -0.389010      0.475137 
 C402  C     0.078102     -0.478300      0.448515 
 C403  C     0.176635     -0.483535      0.447756 
 H404  H    -0.285283     -0.090307     -0.489762 
 H405  H    -0.215037     -0.409466      0.489909 
 H406  H    -0.075590     -0.429334     -0.482531 
 H407  H    -0.082113     -0.403394      0.425941 
 H408  H    -0.418192     -0.096419     -0.425683 
 H409  H    -0.424747     -0.070439      0.482798 
 H410  H     0.068145     -0.337340      0.440769 
 H411  H     0.074178     -0.374267     -0.471919 
 H412  H     0.425492     -0.125518      0.472199 
 H413  H     0.431555     -0.162496     -0.440506 
 H414  H     0.448945     -0.008126     -0.394584 
 H415  H     0.445597      0.030790     -0.481230 
 H416  H     0.054062      0.469403      0.481566 
 H417  H     0.050741     -0.491735      0.394904 
 H418  H     0.197630      0.452469      0.427481 
 H419  H     0.203094     -0.433472      0.413977 
 H420  H     0.206350     -0.474455     -0.499018 
 H421  H     0.302037      0.047663     -0.427113 
 H422  H     0.293315     -0.025367      0.499356 
 H423  H     0.296598     -0.066407     -0.413657 
loop_  
_geom_bond_atom_site_label_1  
_geom_bond_atom_site_label_2  
Cu0   Cu1 
Cu0   O4 
Cu0   O7 
Cu0   O10 
Cu0   O13 
Cu0   N82 
Cu1   O2 
Cu1   O5 
Cu1   O8 
Cu1   O11 
Cu1   N276 
O2   C3 
C3   O4 
C3   C29 
O5   C6 
C6   O7 
C6   C88 
O8   C9 
C9   O10 
C9   C180 
O11   C12 
C12   O13 
C12   C124 
Cu14   Cu15 
Cu14   O18 
Cu14   O21 
Cu14   O24 
Cu14   O27 
Cu14   N174 
Cu15   O16 
Cu15   O19 
Cu15   O22 
Cu15   O25 
Cu15   N368 
O16   C17 
C17   O18 
C17   C121 
O19   C20 
C20   O21 
C20   C177 
O22   C23 
C23   O24 
C23   C85 
O25   C26 
C26   O27 
C26   C32 
C28   C29 
C28   C33 
C28   H45 
C29   C30 
C30   C31 
C30   O34 
C31   C32 
C31   H44 
C32   C33 
C33   O39 
O34   C35 
C35   C36 
C35   H48 
C35   H49 
C36   C37 
C36   H52 
C36   H53 
C37   C38 
C37   H54 
C37   H55 
C38   H61 
C38   H62 
C38   H63 
O39   C40 
C40   C41 
C40   H46 
C40   H47 
C41   C42 
C41   H50 
C41   H51 
C42   C43 
C42   H56 
C42   H57 
C43   H58 
C43   H59 
C43   H60 
N64   C65 
N64   C66 
N64   C67 
N64   Cu213 
C65   C71 
C65   H72 
C65   H73 
C66   C68 
C66   H69 
C66   H70 
C67   C74 
C67   H75 
C67   H76 
C68   H79 
C68   H80 
C68   N82 
C71   H77 
C71   H78 
C71   N82 
C74   H81 
C74   N82 
C74   H83 
C84   C85 
C84   C89 
C84   H101 
C85   C86 
C86   C87 
C86   O90 
C87   C88 
C87   H100 
C88   C89 
C89   O95 
O90   C91 
C91   C92 
C91   H104 
C91   H105 
C92   C93 
C92   H108 
C92   H109 
C93   C94 
C93   H110 
C93   H111 
C94   H117 
C94   H118 
C94   H119 
O95   C96 
C96   C97 
C96   H102 
C96   H103 
C97   C98 
C97   H106 
C97   H107 
C98   C99 
C98   H112 
C98   H113 
C99   H114 
C99   H115 
C99   H116 
C120   C121 
C120   C125 
C120   H137 
C121   C122 
C122   C123 
C122   O126 
C123   C124 
C123   H136 
C124   C125 
C125   O131 
O126   C127 
C127   C128 
C127   H140 
C127   H141 
C128   C129 
C128   H144 
C128   H145 
C129   C130 
C129   H146 
C129   H147 
C130   H153 
C130   H154 
C130   H155 
O131   C132 
C132   C133 
C132   H138 
C132   H139 
C133   C134 
C133   H142 
C133   H143 
C134   C135 
C134   H148 
C134   H149 
C135   H150 
C135   H151 
C135   H152 
N156   C157 
N156   C158 
N156   C159 
N156   Cu227 
C157   C163 
C157   H164 
C157   H165 
C158   C160 
C158   H161 
C158   H162 
C159   C166 
C159   H167 
C159   H168 
C160   H171 
C160   H172 
C160   N174 
C163   H169 
C163   H170 
C163   N174 
C166   H173 
C166   N174 
C166   H175 
C176   C177 
C176   C181 
C176   H193 
C177   C178 
C178   C179 
C178   O182 
C179   C180 
C179   H192 
C180   C181 
C181   O187 
O182   C183 
C183   C184 
C183   H196 
C183   H197 
C184   C185 
C184   H200 
C184   H201 
C185   C186 
C185   H202 
C185   H203 
C186   H209 
C186   H210 
C186   H211 
O187   C188 
C188   C189 
C188   H194 
C188   H195 
C189   C190 
C189   H198 
C189   H199 
C190   C191 
C190   H204 
C190   H205 
C191   H206 
C191   H207 
C191   H208 
Cu212   Cu213 
Cu212   O216 
Cu212   O219 
Cu212   O222 
Cu212   O225 
Cu212   N294 
Cu213   O214 
Cu213   O217 
Cu213   O220 
Cu213   O223 
O214   C215 
C215   O216 
C215   C244 
O217   C218 
C218   O219 
C218   C300 
O220   C221 
C221   O222 
C221   C392 
O223   C224 
C224   O225 
C224   C333 
Cu226   Cu227 
Cu226   O230 
Cu226   O233 
Cu226   O236 
Cu226   O239 
Cu226   N386 
Cu227   O228 
Cu227   O231 
Cu227   O234 
Cu227   O237 
O228   C229 
C229   O230 
C229   C336 
O231   C232 
C232   O233 
C232   C389 
O234   C235 
C235   O236 
C235   C297 
O237   C238 
C238   O239 
C238   C241 
C240   C241 
C240   C245 
C240   H257 
C241   C242 
C242   C243 
C242   O246 
C243   C244 
C243   H256 
C244   C245 
C245   O251 
O246   C247 
C247   C248 
C247   H260 
C247   H261 
C248   C249 
C248   H264 
C248   H265 
C249   C250 
C249   H266 
C249   H267 
C250   H273 
C250   H274 
C250   H275 
O251   C252 
C252   C253 
C252   H258 
C252   H259 
C253   C254 
C253   H262 
C253   H263 
C254   C255 
C254   H268 
C254   H269 
C255   H270 
C255   H271 
C255   H272 
N276   C277 
N276   C278 
N276   C279 
C277   C283 
C277   H284 
C277   H285 
C278   C280 
C278   H281 
C278   H282 
C279   C286 
C279   H287 
C279   H288 
C280   H291 
C280   H292 
C280   N294 
C283   H289 
C283   H290 
C283   N294 
C286   H293 
C286   N294 
C286   H295 
C296   C297 
C296   C301 
C296   H313 
C297   C298 
C298   C299 
C298   O302 
C299   C300 
C299   H312 
C300   C301 
C301   O307 
O302   C303 
C303   C304 
C303   H316 
C303   H317 
C304   C305 
C304   H320 
C304   H321 
C305   C306 
C305   H322 
C305   H323 
C306   H329 
C306   H330 
C306   H331 
O307   C308 
C308   C309 
C308   H314 
C308   H315 
C309   C310 
C309   H318 
C309   H319 
C310   C311 
C310   H324 
C310   H325 
C311   H326 
C311   H327 
C311   H328 
C332   C333 
C332   C337 
C332   H349 
C333   C334 
C334   C335 
C334   O338 
C335   C336 
C335   H348 
C336   C337 
C337   O343 
O338   C339 
C339   C340 
C339   H352 
C339   H353 
C340   C341 
C340   H356 
C340   H357 
C341   C342 
C341   H358 
C341   H359 
C342   H365 
C342   H366 
C342   H367 
O343   C344 
C344   C345 
C344   H350 
C344   H351 
C345   C346 
C345   H354 
C345   H355 
C346   C347 
C346   H360 
C346   H361 
C347   H362 
C347   H363 
C347   H364 
N368   C369 
N368   C370 
N368   C371 
C369   C375 
C369   H376 
C369   H377 
C370   C372 
C370   H373 
C370   H374 
C371   C378 
C371   H379 
C371   H380 
C372   H383 
C372   H384 
C372   N386 
C375   H381 
C375   H382 
C375   N386 
C378   H385 
C378   N386 
C378   H387 
C388   C389 
C388   C393 
C388   H405 
C389   C390 
C390   C391 
C390   O394 
C391   C392 
C391   H404 
C392   C393 
C393   O399 
O394   C395 
C395   C396 
C395   H408 
C395   H409 
C396   C397 
C396   H412 
C396   H413 
C397   C398 
C397   H414 
C397   H415 
C398   H421 
C398   H422 
C398   H423 
O399   C400 
C400   C401 
C400   H406 
C400   H407 
C401   C402 
C401   H410 
C401   H411 
C402   C403 
C402   H416 
C402   H417 
C403   H418 
C403   H419 
C403   H420 
  
#END  
