data_
_symmetry_cell_setting           triclinic 
_symmetry_space_group_name_H-M   'P 1' 
_symmetry_Int_Tables_number      1 
loop_ 
_symmetry_equiv_pos_site_id 
_symmetry_equiv_pos_as_xyz 
1 x,y,z 
_cell_length_a             14.256027        
_cell_length_b             16.454549        
_cell_length_c             19.191424        
_cell_angle_alpha          88.583086        
_cell_angle_beta           89.267320        
_cell_angle_gamma          89.576724        
loop_  
_atom_site_label   
_atom_site_type_symbol  
_atom_site_fract_x  
_atom_site_fract_y  
_atom_site_fract_z 
 Cu0  Cu    -0.010051     -0.003677      0.070503 
 Cu1  Cu    -0.005903      0.000936     -0.069664 
 O2  O    -0.099945      0.092952     -0.059134 
 C3  C    -0.128400      0.115727     -0.000122 
 O4  O    -0.099057      0.089871      0.059929 
 O5  O     0.091834      0.088374     -0.061965 
 C6  C     0.117530      0.106747     -0.002843 
 O7  O     0.088983      0.078259      0.055365 
 O8  O    -0.105930     -0.082538     -0.064878 
 C9  C    -0.135074     -0.110215     -0.004771 
 O10  O    -0.106435     -0.089087      0.055735 
 O11  O     0.100591     -0.078859     -0.056898 
 C12  C     0.115436     -0.116936      0.001536 
 O13  O     0.073973     -0.098831      0.057477 
 Cu14  Cu     0.495093      0.497311      0.071395 
 Cu15  Cu     0.489618      0.496631     -0.067495 
 O16  O     0.403107     -0.415857     -0.048636 
 C17  C     0.364880     -0.402528      0.009423 
 O18  O     0.377117     -0.443313      0.065607 
 O19  O    -0.404611     -0.421027     -0.058112 
 C20  C    -0.394743     -0.377579     -0.004186 
 O21  O    -0.441347     -0.393826      0.052650 
 O22  O     0.390694      0.414640     -0.055292 
 C23  C     0.383135      0.374478      0.001953 
 O24  O     0.419520      0.392194      0.058527 
 O25  O    -0.406869      0.414202     -0.060135 
 C26  C    -0.366316      0.400049     -0.001637 
 O27  O    -0.383223      0.436571      0.053651 
 C28  C    -0.320624      0.267745     -0.044752 
 C29  C    -0.297693      0.331693     -0.000966 
 C30  C    -0.219078      0.320086      0.042185 
 C31  C    -0.158598      0.256375      0.032973 
 C32  C    -0.189863      0.188383     -0.000168 
 C33  C    -0.274382      0.193164     -0.039211 
 O34  O    -0.193929      0.376499      0.093999 
 C35  C    -0.163428      0.353749      0.162633 
 C36  C    -0.241504      0.341658      0.215278 
 C37  C    -0.209434      0.309433      0.287111 
 C38  C    -0.166358      0.373511      0.333634 
 O39  O    -0.299189      0.119450     -0.068105 
 C40  C    -0.387510      0.115259     -0.104964 
 C41  C    -0.384195      0.032057     -0.138992 
 C42  C    -0.391964     -0.041649     -0.087027 
 C43  C    -0.425472     -0.121059     -0.114081 
 H44  H    -0.093642      0.251020      0.064089 
 H45  H    -0.387714      0.269473     -0.068736 
 H46  H    -0.448599      0.117947     -0.072906 
 H47  H    -0.389493      0.164876     -0.146816 
 H48  H    -0.118189      0.297322      0.165563 
 H49  H    -0.115024      0.402312      0.179911 
 H50  H    -0.444994      0.022789     -0.172984 
 H51  H    -0.325552      0.026844     -0.176075 
 H52  H    -0.266130      0.403734      0.217812 
 H53  H    -0.296451      0.310844      0.186216 
 H54  H    -0.274538      0.286399      0.311252 
 H55  H    -0.165105      0.249631      0.286312 
 H56  H    -0.319860     -0.056437     -0.071613 
 H57  H    -0.432315     -0.022891     -0.041578 
 H58  H    -0.491248     -0.119307     -0.140577 
 H59  H    -0.370149     -0.148208     -0.146425 
 H60  H    -0.434640     -0.167460     -0.073516 
 H61  H    -0.221443      0.420530      0.349857 
 H62  H    -0.148437      0.343948      0.382992 
 H63  H    -0.104019      0.401247      0.309284 
 N64  N    -0.006265     -0.009033      0.311431 
 C65  C    -0.079048     -0.072607      0.289137 
 C66  C    -0.045578      0.068371      0.284280 
 C67  C     0.089609     -0.020358      0.283386 
 C68  C    -0.046438      0.068587      0.202661 
 H69  H    -0.120481      0.072207      0.303481 
 H70  H    -0.012331      0.121950      0.312459 
 C71  C    -0.072893     -0.073324      0.204943 
 H72  H    -0.062880     -0.127214      0.315790 
 H73  H    -0.151314     -0.056161      0.305756 
 C74  C     0.084682     -0.017049      0.200574 
 H75  H     0.144429      0.023231      0.306417 
 H76  H     0.114799     -0.086269      0.297770 
 H77  H    -0.048147     -0.134926      0.189511 
 H78  H    -0.141772     -0.056474      0.178258 
 H79  H    -0.123176      0.078497      0.188821 
 H80  H    -0.016833      0.122664      0.178740 
 H81  H     0.120089     -0.065007      0.173520 
 N82  N    -0.011888     -0.005594      0.177145 
 H83  H     0.119758      0.034781      0.182571 
 C84  C     0.167755      0.238241     -0.036813 
 C85  C     0.196455      0.167895     -0.001850 
 C86  C     0.284318      0.161446      0.034044 
 C87  C     0.344140      0.227108      0.030348 
 C88  C     0.316152      0.302683     -0.000424 
 C89  C     0.226964      0.309432     -0.033696 
 O90  O     0.320497      0.087665      0.063307 
 C91  C     0.289604      0.011849      0.041211 
 C92  C     0.363094     -0.060299      0.049297 
 C93  C     0.337433     -0.120111      0.112348 
 C94  C     0.373800     -0.089171      0.183654 
 O95  O     0.199660      0.385380     -0.059181 
 C96  C     0.097968      0.402961     -0.068298 
 C97  C     0.080014      0.494042     -0.067912 
 C98  C     0.140233     -0.457643     -0.120800 
 C99  C     0.109783     -0.369872     -0.118527 
 H100  H     0.419254      0.223277      0.048740 
 H101  H     0.103062      0.238928     -0.066385 
 H102  H     0.073148      0.379533     -0.118110 
 H103  H     0.058640      0.372362     -0.025924 
 H104  H     0.225598     -0.006209      0.073547 
 H105  H     0.260516      0.017326     -0.013914 
 H106  H     0.006592     -0.496749     -0.077879 
 H107  H     0.090009     -0.484678     -0.009364 
 H108  H     0.373660     -0.090899     -0.001757 
 H109  H     0.436001     -0.029860      0.057049 
 H110  H     0.264168     -0.127977      0.110938 
 H111  H     0.372735     -0.176563      0.097839 
 H112  H     0.210495     -0.475098     -0.106392 
 H113  H     0.129988     -0.481447     -0.175236 
 H114  H     0.101255     -0.355336     -0.063909 
 H115  H     0.168677     -0.331294     -0.138575 
 H116  H     0.041534     -0.352731     -0.146353 
 H117  H     0.448601     -0.094753      0.187161 
 H118  H     0.349938     -0.023170      0.194906 
 H119  H     0.343652     -0.125102      0.226617 
 C120  C     0.177339     -0.238677      0.066666 
 C121  C     0.186498     -0.185624      0.008521 
 C122  C     0.251048     -0.200198     -0.042871 
 C123  C     0.309672     -0.267826     -0.038737 
 C124  C     0.298936     -0.327334      0.014354 
 C125  C     0.233140     -0.310981      0.070470 
 O126  O     0.247846     -0.153391     -0.105016 
 C127  C     0.313729     -0.175042     -0.158842 
 C128  C     0.305984     -0.120518     -0.229166 
 C129  C     0.372617     -0.152136     -0.287230 
 C130  C     0.363767     -0.096257     -0.350157 
 O131  O     0.236469     -0.360426      0.130489 
 C132  C     0.167728     -0.348312      0.182897 
 C133  C     0.200062     -0.285202      0.232996 
 C134  C     0.140402     -0.286520      0.302767 
 C135  C     0.145624     -0.357527      0.350063 
 H136  H     0.361283     -0.279705     -0.081132 
 H137  H     0.126109     -0.222316      0.107489 
 H138  H     0.100514     -0.329373      0.158921 
 H139  H     0.148822     -0.405962      0.205201 
 H140  H     0.390599     -0.177878     -0.143251 
 H141  H     0.302187     -0.235292     -0.176492 
 H142  H     0.272141     -0.291948      0.250332 
 H143  H     0.194831     -0.224674      0.212823 
 H144  H     0.232430     -0.124710     -0.243605 
 H145  H     0.329682     -0.055107     -0.217485 
 H146  H     0.449454     -0.150314     -0.272390 
 H147  H     0.363127     -0.219050     -0.295878 
 H148  H     0.152756     -0.233531      0.334709 
 H149  H     0.063088     -0.279600      0.284633 
 H150  H     0.116814     -0.411479      0.323593 
 H151  H     0.222090     -0.370351      0.358108 
 H152  H     0.106795     -0.342360      0.396250 
 H153  H     0.394877     -0.122724     -0.397973 
 H154  H     0.287136     -0.085319     -0.365957 
 H155  H     0.388870     -0.032116     -0.346722 
 N156  N    -0.493095     -0.488561      0.319447 
 C157  C     0.428872     -0.441879      0.290020 
 C158  C    -0.408291     -0.450301      0.289924 
 C159  C    -0.497087      0.424454      0.295092 
 C160  C    -0.407872     -0.451561      0.206960 
 H161  H    -0.395415     -0.383360      0.302348 
 H162  H    -0.344037     -0.486057      0.306408 
 C163  C     0.427592     -0.449026      0.208872 
 H164  H     0.365196     -0.474427      0.312325 
 H165  H     0.429668     -0.379459      0.305352 
 C166  C    -0.497024      0.420112      0.214192 
 H167  H    -0.433453      0.393534      0.318656 
 H168  H     0.442113      0.387273      0.309539 
 H169  H     0.355969     -0.482432      0.197131 
 H170  H     0.431573     -0.386193      0.184354 
 H171  H    -0.415815     -0.388726      0.184731 
 H172  H    -0.343576     -0.486527      0.186590 
 H173  H     0.438315      0.394897      0.194886 
 N174  N    -0.490841     -0.495298      0.181595 
 H175  H    -0.436193      0.383304      0.197449 
 C176  C    -0.195593     -0.234201     -0.060469 
 C177  C    -0.204944     -0.179969     -0.007044 
 C178  C    -0.277439     -0.186255      0.044955 
 C179  C    -0.334309     -0.251495      0.043195 
 C180  C    -0.326322     -0.306997     -0.009394 
 C181  C    -0.254518     -0.300922     -0.063148 
 O182  O    -0.282684     -0.127310      0.099999 
 C183  C    -0.369597     -0.113943      0.135849 
 C184  C    -0.362366     -0.032177      0.167681 
 C185  C    -0.347087      0.032442      0.108144 
 C186  C    -0.341449      0.122508      0.130772 
 O187  O    -0.246840     -0.357258     -0.116953 
 C188  C    -0.179964     -0.421923     -0.106465 
 C189  C    -0.181279     -0.473220     -0.171363 
 C190  C    -0.154059     -0.423172     -0.237491 
 C191  C    -0.179110     -0.464679     -0.304818 
 H192  H    -0.386716     -0.268380      0.083250 
 H193  H    -0.134510     -0.225800     -0.095644 
 H194  H    -0.111624     -0.393996     -0.103009 
 H195  H    -0.187859     -0.459202     -0.058081 
 H196  H    -0.427632     -0.113255      0.098481 
 H197  H    -0.375546     -0.165837      0.172375 
 H198  H    -0.130895      0.478183     -0.160625 
 H199  H    -0.250194      0.495988     -0.177039 
 H200  H    -0.425260     -0.017669      0.198756 
 H201  H    -0.301293     -0.024303      0.205221 
 H202  H    -0.276686      0.016059      0.082172 
 H203  H    -0.401343      0.024062      0.068230 
 H204  H    -0.184550     -0.358183     -0.234723 
 H205  H    -0.076410     -0.416494     -0.236740 
 H206  H    -0.254527     -0.480244     -0.305224 
 H207  H    -0.149507     -0.423882     -0.351612 
 H208  H    -0.144376      0.475818     -0.315994 
 H209  H    -0.408156      0.146831      0.152859 
 H210  H    -0.292237      0.126359      0.177879 
 H211  H    -0.317165      0.162854      0.085834 
 Cu212  Cu     0.012072      0.001681     -0.436208 
 Cu213  Cu     0.018170      0.001956      0.425196 
 O214  O    -0.080261      0.082912      0.435197 
 C215  C    -0.095574      0.120366      0.492860 
 O216  O    -0.057925      0.098680     -0.449672 
 O217  O     0.108623      0.088811      0.430139 
 C218  C     0.144864      0.106156      0.488207 
 O219  O     0.132117      0.062592     -0.457648 
 O220  O    -0.078652     -0.086073      0.438197 
 C221  C    -0.119011     -0.105638      0.497875 
 O222  O    -0.106476     -0.067699     -0.445956 
 O223  O     0.119082     -0.074294      0.437529 
 C224  C     0.120571     -0.118414      0.491579 
 O225  O     0.074904     -0.104681     -0.451862 
 Cu226  Cu    -0.499755     -0.498517     -0.433524 
 Cu227  Cu    -0.495011     -0.498517      0.433201 
 O228  O     0.412975     -0.407173      0.433269 
 C229  C     0.372262     -0.393819      0.491444 
 O230  O     0.384804     -0.434537     -0.449568 
 O231  O    -0.384515     -0.417394      0.437450 
 C232  C    -0.375631     -0.383384      0.494644 
 O233  O    -0.423048     -0.398317     -0.448249 
 O234  O     0.401919      0.420912      0.451810 
 C235  C     0.385494      0.386051     -0.489095 
 O236  O     0.431616      0.395924     -0.436260 
 O237  O    -0.396381      0.421119      0.443832 
 C238  C    -0.355933      0.399447     -0.495152 
 O239  O    -0.373658      0.432035     -0.435624 
 C240  C    -0.202375      0.329080     -0.458722 
 C241  C    -0.285002      0.330905     -0.499015 
 C242  C    -0.298292      0.268258      0.455253 
 C243  C    -0.230688      0.205659      0.445231 
 C244  C    -0.159421      0.199033      0.491818 
 C245  C    -0.144407      0.259835     -0.459420 
 O246  O    -0.378577      0.267322      0.418105 
 C247  C    -0.449293      0.224623      0.456864 
 C248  C     0.465463      0.220263      0.414693 
 C249  C     0.491159      0.189730      0.341896 
 C250  C     0.407874      0.163832      0.296228 
 O251  O    -0.068262      0.252514     -0.417229 
 C252  C    -0.065933      0.304988     -0.355615 
 C253  C    -0.009791      0.264968     -0.296493 
 C254  C     0.096137      0.273908     -0.297728 
 C255  C     0.136394      0.361752     -0.290728 
 H256  H    -0.246015      0.158777      0.408610 
 H257  H    -0.187128      0.382138     -0.424521 
 H258  H    -0.039308      0.361389     -0.372004 
 H259  H    -0.137622      0.313969     -0.332716 
 H260  H    -0.428325      0.158872      0.464611 
 H261  H    -0.467742      0.251273     -0.492271 
 H262  H    -0.043181      0.298518     -0.255188 
 H263  H    -0.032575      0.199708     -0.290999 
 H264  H     0.420218      0.176767      0.442128 
 H265  H     0.421997      0.276992      0.412787 
 H266  H    -0.467885      0.234230      0.308866 
 H267  H    -0.465593      0.135068      0.349206 
 H268  H     0.125782      0.235825     -0.255308 
 H269  H     0.124929      0.246138     -0.344486 
 H270  H     0.107040      0.401742     -0.333081 
 H271  H     0.105156      0.389387     -0.239086 
 H272  H     0.212286      0.363710     -0.292604 
 H273  H     0.357545      0.216045      0.284945 
 H274  H     0.440272      0.145990      0.245420 
 H275  H     0.370404      0.115625      0.319998 
 N276  N     0.003582     -0.010173     -0.182998 
 C277  C    -0.083315      0.013365     -0.219919 
 C278  C     0.081001      0.044245     -0.208472 
 C279  C     0.026862     -0.094500     -0.205058 
 C280  C     0.097004      0.037263     -0.290061 
 H281  H     0.058669      0.105666     -0.196676 
 H282  H     0.149517      0.032525     -0.178025 
 C283  C    -0.067029      0.021273     -0.300335 
 H284  H    -0.134196     -0.034274     -0.212387 
 H285  H    -0.116556      0.067460     -0.202175 
 C286  C     0.027786     -0.094610     -0.288596 
 H287  H     0.100132     -0.110883     -0.190113 
 H288  H    -0.023871     -0.133943     -0.176289 
 H289  H    -0.126062     -0.009397     -0.324767 
 H290  H    -0.070805      0.089100     -0.323401 
 H291  H     0.090789      0.099384     -0.315014 
 H292  H     0.168077      0.007623     -0.294893 
 H293  H    -0.031282     -0.130872     -0.308764 
 N294  N     0.024147     -0.013797     -0.318141 
 H295  H     0.093808     -0.123831     -0.302540 
 C296  C     0.249004      0.322979      0.451976 
 C297  C     0.304755      0.327492     -0.489105 
 C298  C     0.303615      0.265816     -0.436041 
 C299  C     0.242227      0.201700     -0.443501 
 C300  C     0.197140      0.187295      0.495378 
 C301  C     0.198002      0.247888      0.441438 
 O302  O     0.345639      0.272158     -0.373270 
 C303  C     0.423278      0.221403     -0.359431 
 C304  C     0.441023      0.206954     -0.282262 
 C305  C     0.352519      0.190672     -0.235573 
 C306  C     0.369186      0.183865     -0.154140 
 O307  O     0.145105      0.232297      0.381671 
 C308  C     0.154124      0.290558      0.324109 
 C309  C     0.100025      0.251127      0.264407 
 C310  C     0.102499      0.306383      0.196214 
 C311  C     0.202861      0.330438      0.172398 
 H312  H     0.242166      0.161412     -0.398682 
 H313  H     0.244353      0.364454      0.409099 
 H314  H     0.129819      0.356728      0.337885 
 H315  H     0.228192      0.296599      0.308935 
 H316  H     0.418696      0.157179     -0.385452 
 H317  H     0.487001      0.253791     -0.380328 
 H318  H     0.121305      0.189307      0.252854 
 H319  H     0.026153      0.243646      0.285564 
 H320  H     0.495231      0.158951     -0.278978 
 H321  H     0.473876      0.263091     -0.263325 
 H322  H     0.304791      0.243232     -0.248802 
 H323  H     0.316831      0.138478     -0.249454 
 H324  H     0.065346      0.274650      0.156774 
 H325  H     0.065569      0.361210      0.206633 
 H326  H     0.246979      0.274282      0.173176 
 H327  H     0.202874      0.366417      0.122064 
 H328  H     0.233281      0.371268      0.208952 
 H329  H     0.371785      0.245711     -0.132356 
 H330  H     0.313352      0.154139     -0.120545 
 H331  H     0.429390      0.150760     -0.135703 
 C332  C     0.173270     -0.252427     -0.463012 
 C333  C     0.191056     -0.184468      0.491720 
 C334  C     0.272366     -0.186204      0.445925 
 C335  C     0.331800     -0.254540      0.450190 
 C336  C     0.308013     -0.320684      0.492362 
 C337  C     0.234860     -0.320818     -0.462141 
 O338  O     0.303553     -0.125767      0.402908 
 C339  C     0.335879     -0.054126      0.434042 
 C340  C     0.443603     -0.067780      0.440637 
 C341  C     0.493069     -0.077137      0.367812 
 C342  C    -0.405036     -0.107876      0.367276 
 O343  O     0.224488     -0.382634     -0.414065 
 C344  C     0.132864     -0.408340     -0.388554 
 C345  C     0.071457     -0.428454     -0.451200 
 C346  C     0.103486     -0.497742     -0.496444 
 C347  C     0.024439      0.468102      0.454451 
 H348  H     0.394023     -0.252052      0.414977 
 H349  H     0.117439     -0.248871     -0.423693 
 H350  H     0.145190     -0.463982     -0.356559 
 H351  H     0.105489     -0.359253     -0.358242 
 H352  H     0.320033      0.007846      0.410156 
 H353  H     0.305018     -0.043787      0.485820 
 H354  H     0.005036     -0.446157     -0.427649 
 H355  H     0.051173     -0.371769     -0.476419 
 H356  H     0.468994     -0.009711      0.460774 
 H357  H     0.465605     -0.113211      0.478116 
 H358  H     0.451862     -0.123154      0.344004 
 H359  H     0.494975     -0.022787      0.336298 
 H360  H     0.161824     -0.474662      0.470082 
 H361  H     0.134279      0.447019     -0.471691 
 H362  H     0.004412     -0.487821      0.415679 
 H363  H     0.041367      0.414101      0.425940 
 H364  H    -0.038394      0.450598      0.482745 
 H365  H    -0.370348     -0.087363      0.317695 
 H366  H    -0.365052     -0.078236      0.409612 
 H367  H    -0.395025     -0.172428      0.370151 
 N368  N     0.486307      0.499831     -0.182409 
 C369  C     0.389163      0.490195     -0.211881 
 C370  C    -0.487704     -0.417784     -0.212298 
 C371  C    -0.449806      0.437761     -0.210213 
 C372  C    -0.466500     -0.420620     -0.291974 
 H373  H     0.456659     -0.375823     -0.192526 
 H374  H    -0.430001     -0.390615     -0.188106 
 C375  C     0.389152      0.498304     -0.293522 
 H376  H     0.368917      0.429948     -0.190728 
 H377  H     0.334016     -0.470850     -0.186370 
 C378  C    -0.455887      0.436174     -0.290425 
 H379  H    -0.379174      0.458165     -0.192990 
 H380  H    -0.460721      0.377007     -0.186558 
 H381  H     0.350665      0.452980     -0.319132 
 H382  H     0.347771     -0.446739     -0.305693 
 H383  H     0.497786     -0.367822     -0.318277 
 H384  H    -0.388744     -0.421013     -0.299777 
 H385  H    -0.489205      0.378511     -0.304729 
 N386  N     0.488285     -0.494834     -0.318308 
 H387  H    -0.385361      0.432132     -0.311417 
 C388  C    -0.169110     -0.239110      0.447871 
 C389  C    -0.176484     -0.184357     -0.499248 
 C390  C    -0.239482     -0.195106     -0.446644 
 C391  C    -0.304701     -0.261739     -0.444371 
 C392  C    -0.301542     -0.315791     -0.499612 
 C393  C    -0.231331     -0.304043      0.448358 
 O394  O    -0.250158     -0.133151     -0.399933 
 C395  C    -0.338077     -0.129481     -0.359509 
 C396  C    -0.343726     -0.046924     -0.316160 
 C397  C    -0.322038      0.033101     -0.357705 
 C398  C    -0.318829      0.114964     -0.322525 
 O399  O    -0.232429     -0.351046      0.390788 
 C400  C    -0.143322     -0.377183      0.362133 
 C401  C    -0.142953     -0.347057      0.281354 
 C402  C    -0.164664     -0.415435      0.230528 
 C403  C    -0.141958     -0.392640      0.153643 
 H404  H    -0.356805     -0.271537     -0.402665 
 H405  H    -0.122005     -0.233082      0.401186 
 H406  H    -0.081888     -0.354698      0.394567 
 H407  H    -0.141087     -0.443380      0.367334 
 H408  H    -0.397631     -0.133964     -0.398521 
 H409  H    -0.351817     -0.181666     -0.324923 
 H410  H    -0.189662     -0.293472      0.272686 
 H411  H    -0.068723     -0.325189      0.272025 
 H412  H    -0.416774     -0.033939     -0.303775 
 H413  H    -0.297241     -0.049563     -0.268089 
 H414  H    -0.255140      0.022464     -0.388100 
 H415  H    -0.371815      0.040828     -0.400100 
 H416  H    -0.119080     -0.473375      0.243116 
 H417  H    -0.238985     -0.427031      0.237996 
 H418  H    -0.185270     -0.341498      0.135041 
 H419  H    -0.066041     -0.379059      0.141685 
 H420  H    -0.151942     -0.444694      0.122490 
 H421  H    -0.369223      0.116109     -0.279687 
 H422  H    -0.248557      0.124883     -0.300981 
 H423  H    -0.327596      0.166060     -0.361740 
loop_  
_geom_bond_atom_site_label_1  
_geom_bond_atom_site_label_2  
Cu0   Cu1 
Cu0   O4 
Cu0   O7 
Cu0   O10 
Cu0   O13 
Cu0   N82 
Cu1   O2 
Cu1   O5 
Cu1   O8 
Cu1   O11 
Cu1   N276 
O2   C3 
C3   O4 
C3   C32 
O5   C6 
C6   O7 
C6   C85 
O8   C9 
C9   O10 
C9   C177 
O11   C12 
C12   O13 
C12   C121 
Cu14   Cu15 
Cu14   O18 
Cu14   O21 
Cu14   O24 
Cu14   O27 
Cu14   N174 
Cu15   O16 
Cu15   O19 
Cu15   O22 
Cu15   O25 
Cu15   N368 
O16   C17 
C17   O18 
C17   C124 
O19   C20 
C20   O21 
C20   C180 
O22   C23 
C23   O24 
C23   C88 
O25   C26 
C26   O27 
C26   C29 
C28   C29 
C28   C33 
C28   H45 
C29   C30 
C30   C31 
C30   O34 
C31   C32 
C31   H44 
C32   C33 
C33   O39 
O34   C35 
C35   C36 
C35   H48 
C35   H49 
C36   C37 
C36   H52 
C36   H53 
C37   C38 
C37   H54 
C37   H55 
C38   H61 
C38   H62 
C38   H63 
O39   C40 
C40   C41 
C40   H46 
C40   H47 
C41   C42 
C41   H50 
C41   H51 
C42   C43 
C42   H56 
C42   H57 
C43   H58 
C43   H59 
C43   H60 
N64   C65 
N64   C66 
N64   C67 
N64   Cu213 
C65   C71 
C65   H72 
C65   H73 
C66   C68 
C66   H69 
C66   H70 
C67   C74 
C67   H75 
C67   H76 
C68   H79 
C68   H80 
C68   N82 
C71   H77 
C71   H78 
C71   N82 
C74   H81 
C74   N82 
C74   H83 
C84   C85 
C84   C89 
C84   H101 
C85   C86 
C86   C87 
C86   O90 
C87   C88 
C87   H100 
C88   C89 
C89   O95 
O90   C91 
C91   C92 
C91   H104 
C91   H105 
C92   C93 
C92   H108 
C92   H109 
C93   C94 
C93   H110 
C93   H111 
C94   H117 
C94   H118 
C94   H119 
O95   C96 
C96   C97 
C96   H102 
C96   H103 
C97   C98 
C97   H106 
C97   H107 
C98   C99 
C98   H112 
C98   H113 
C99   H114 
C99   H115 
C99   H116 
C120   C121 
C120   C125 
C120   H137 
C121   C122 
C122   C123 
C122   O126 
C123   C124 
C123   H136 
C124   C125 
C125   O131 
O126   C127 
C127   C128 
C127   H140 
C127   H141 
C128   C129 
C128   H144 
C128   H145 
C129   C130 
C129   H146 
C129   H147 
C130   H153 
C130   H154 
C130   H155 
O131   C132 
C132   C133 
C132   H138 
C132   H139 
C133   C134 
C133   H142 
C133   H143 
C134   C135 
C134   H148 
C134   H149 
C135   H150 
C135   H151 
C135   H152 
N156   C157 
N156   C158 
N156   C159 
N156   Cu227 
C157   C163 
C157   H164 
C157   H165 
C158   C160 
C158   H161 
C158   H162 
C159   C166 
C159   H167 
C159   H168 
C160   H171 
C160   H172 
C160   N174 
C163   H169 
C163   H170 
C163   N174 
C166   H173 
C166   N174 
C166   H175 
C176   C177 
C176   C181 
C176   H193 
C177   C178 
C178   C179 
C178   O182 
C179   C180 
C179   H192 
C180   C181 
C181   O187 
O182   C183 
C183   C184 
C183   H196 
C183   H197 
C184   C185 
C184   H200 
C184   H201 
C185   C186 
C185   H202 
C185   H203 
C186   H209 
C186   H210 
C186   H211 
O187   C188 
C188   C189 
C188   H194 
C188   H195 
C189   C190 
C189   H198 
C189   H199 
C190   C191 
C190   H204 
C190   H205 
C191   H206 
C191   H207 
C191   H208 
Cu212   Cu213 
Cu212   O216 
Cu212   O219 
Cu212   O222 
Cu212   O225 
Cu212   N294 
Cu213   O214 
Cu213   O217 
Cu213   O220 
Cu213   O223 
O214   C215 
C215   O216 
C215   C244 
O217   C218 
C218   O219 
C218   C300 
O220   C221 
C221   O222 
C221   C389 
O223   C224 
C224   O225 
C224   C333 
Cu226   Cu227 
Cu226   O230 
Cu226   O233 
Cu226   O236 
Cu226   O239 
Cu226   N386 
Cu227   O228 
Cu227   O231 
Cu227   O234 
Cu227   O237 
O228   C229 
C229   O230 
C229   C336 
O231   C232 
C232   O233 
C232   C392 
O234   C235 
C235   O236 
C235   C297 
O237   C238 
C238   O239 
C238   C241 
C240   C241 
C240   C245 
C240   H257 
C241   C242 
C242   C243 
C242   O246 
C243   C244 
C243   H256 
C244   C245 
C245   O251 
O246   C247 
C247   C248 
C247   H260 
C247   H261 
C248   C249 
C248   H264 
C248   H265 
C249   C250 
C249   H266 
C249   H267 
C250   H273 
C250   H274 
C250   H275 
O251   C252 
C252   C253 
C252   H258 
C252   H259 
C253   C254 
C253   H262 
C253   H263 
C254   C255 
C254   H268 
C254   H269 
C255   H270 
C255   H271 
C255   H272 
N276   C277 
N276   C278 
N276   C279 
C277   C283 
C277   H284 
C277   H285 
C278   C280 
C278   H281 
C278   H282 
C279   C286 
C279   H287 
C279   H288 
C280   H291 
C280   H292 
C280   N294 
C283   H289 
C283   H290 
C283   N294 
C286   H293 
C286   N294 
C286   H295 
C296   C297 
C296   C301 
C296   H313 
C297   C298 
C298   C299 
C298   O302 
C299   C300 
C299   H312 
C300   C301 
C301   O307 
O302   C303 
C303   C304 
C303   H316 
C303   H317 
C304   C305 
C304   H320 
C304   H321 
C305   C306 
C305   H322 
C305   H323 
C306   H329 
C306   H330 
C306   H331 
O307   C308 
C308   C309 
C308   H314 
C308   H315 
C309   C310 
C309   H318 
C309   H319 
C310   C311 
C310   H324 
C310   H325 
C311   H326 
C311   H327 
C311   H328 
C332   C333 
C332   C337 
C332   H349 
C333   C334 
C334   C335 
C334   O338 
C335   C336 
C335   H348 
C336   C337 
C337   O343 
O338   C339 
C339   C340 
C339   H352 
C339   H353 
C340   C341 
C340   H356 
C340   H357 
C341   C342 
C341   H358 
C341   H359 
C342   H365 
C342   H366 
C342   H367 
O343   C344 
C344   C345 
C344   H350 
C344   H351 
C345   C346 
C345   H354 
C345   H355 
C346   C347 
C346   H360 
C346   H361 
C347   H362 
C347   H363 
C347   H364 
N368   C369 
N368   C370 
N368   C371 
C369   C375 
C369   H376 
C369   H377 
C370   C372 
C370   H373 
C370   H374 
C371   C378 
C371   H379 
C371   H380 
C372   H383 
C372   H384 
C372   N386 
C375   H381 
C375   H382 
C375   N386 
C378   H385 
C378   N386 
C378   H387 
C388   C389 
C388   C393 
C388   H405 
C389   C390 
C390   C391 
C390   O394 
C391   C392 
C391   H404 
C392   C393 
C393   O399 
O394   C395 
C395   C396 
C395   H408 
C395   H409 
C396   C397 
C396   H412 
C396   H413 
C397   C398 
C397   H414 
C397   H415 
C398   H421 
C398   H422 
C398   H423 
O399   C400 
C400   C401 
C400   H406 
C400   H407 
C401   C402 
C401   H410 
C401   H411 
C402   C403 
C402   H416 
C402   H417 
C403   H418 
C403   H419 
C403   H420 
  
#END  
