data_
_symmetry_cell_setting           triclinic 
_symmetry_space_group_name_H-M   'P 1' 
_symmetry_Int_Tables_number      1 
loop_ 
_symmetry_equiv_pos_site_id 
_symmetry_equiv_pos_as_xyz 
1 x,y,z 
_cell_length_a             18.283187        
_cell_length_b             10.745882        
_cell_length_c             19.087479        
_cell_angle_alpha          89.800700        
_cell_angle_beta           90.130621        
_cell_angle_gamma          89.662693        
loop_  
_atom_site_label   
_atom_site_type_symbol  
_atom_site_fract_x  
_atom_site_fract_y  
_atom_site_fract_z 
 Cu0  Cu    -0.017484      0.009698      0.075147 
 Cu1  Cu    -0.015745      0.003779     -0.061633 
 O2  O    -0.091459      0.135606     -0.056822 
 C3  C    -0.119811      0.166412      0.001531 
 O4  O    -0.093051      0.143738      0.062008 
 O5  O     0.064519      0.122999     -0.048560 
 C6  C     0.091729      0.150827      0.010843 
 O7  O     0.062351      0.130387      0.069906 
 O8  O    -0.093502     -0.118253     -0.053716 
 C9  C    -0.121887     -0.139169      0.005768 
 O10  O    -0.094598     -0.114492      0.065344 
 O11  O     0.055280     -0.132359     -0.053114 
 C12  C     0.084397     -0.153387      0.006231 
 O13  O     0.058056     -0.123394      0.065524 
 Cu14  Cu     0.483461     -0.478778      0.061702 
 Cu15  Cu     0.482974     -0.487432     -0.075102 
 O16  O     0.407283     -0.353955     -0.065687 
 C17  C     0.381210     -0.324121     -0.006147 
 O18  O     0.411349     -0.343287      0.052993 
 O19  O    -0.437654     -0.366367     -0.064173 
 C20  C    -0.409618     -0.340342     -0.005057 
 O21  O    -0.438126     -0.358368      0.054741 
 O22  O     0.403948      0.393101     -0.069609 
 C23  C     0.376104      0.372277     -0.009905 
 O24  O     0.403989      0.401132      0.048939 
 O25  O    -0.443761      0.375670     -0.063159 
 C26  C    -0.414621      0.356092     -0.003512 
 O27  O    -0.441462      0.388160      0.055191 
 C28  C    -0.248091      0.153590     -0.038522 
 C29  C    -0.195075      0.221237     -0.002138 
 C30  C    -0.212828      0.331077      0.033526 
 C31  C    -0.285806      0.371681      0.034492 
 C32  C    -0.338797      0.303717     -0.001696 
 C33  C    -0.321228      0.193562     -0.037051 
 O34  O    -0.156908      0.394289      0.064686 
 C35  C    -0.173128      0.495112      0.111165 
 C36  C    -0.101049     -0.456609      0.139983 
 C37  C    -0.052051      0.440489      0.171133 
 C38  C     0.020465      0.488968      0.199910 
 O39  O    -0.377916      0.129814     -0.066735 
 C40  C    -0.364805      0.012051     -0.099559 
 C41  C    -0.438171     -0.052377     -0.108521 
 C42  C    -0.497050      0.025605     -0.146377 
 C43  C    -0.478424      0.055247     -0.222891 
 H44  H    -0.301187      0.457509      0.061325 
 H45  H    -0.232510      0.067819     -0.065362 
 H46  H    -0.337619      0.027382     -0.150253 
 H47  H    -0.328420     -0.045813     -0.066819 
 H48  H    -0.202448     -0.430478      0.082673 
 H49  H    -0.208510      0.461177      0.153712 
 H50  H    -0.429831     -0.140612     -0.136651 
 H51  H    -0.458824     -0.078680     -0.056410 
 H52  H    -0.070897     -0.408298      0.098197 
 H53  H    -0.112191     -0.385514      0.179987 
 H54  H    -0.081960      0.391529      0.212805 
 H55  H    -0.040264      0.370403      0.130589 
 H56  H     0.450889     -0.025159     -0.144083 
 H57  H     0.493457      0.112820     -0.117463 
 H58  H    -0.472204     -0.030600     -0.253389 
 H59  H     0.478197      0.110959     -0.247848 
 H60  H    -0.427442      0.108338     -0.227033 
 H61  H     0.053464      0.412130      0.221563 
 H62  H     0.052737     -0.466110      0.158459 
 H63  H     0.011407     -0.442651      0.241679 
 N64  N    -0.017954     -0.026241      0.325063 
 C65  C    -0.092041     -0.055427      0.299013 
 C66  C     0.001975      0.098186      0.298468 
 C67  C     0.033398     -0.118497      0.295410 
 C68  C    -0.000429      0.102149      0.216933 
 H69  H    -0.035596      0.167978      0.320767 
 H70  H     0.057287      0.120948      0.317027 
 C71  C    -0.094208     -0.051223      0.217086 
 H72  H    -0.107400     -0.148469      0.318295 
 H73  H    -0.131472      0.011363      0.321491 
 C74  C     0.030447     -0.116170      0.213594 
 H75  H     0.089075     -0.097348      0.313854 
 H76  H     0.019604     -0.211511      0.315948 
 H77  H    -0.111837     -0.141549      0.195890 
 H78  H    -0.133660      0.018927      0.198279 
 H79  H    -0.039871      0.173245      0.198713 
 H80  H     0.053379      0.128655      0.196132 
 H81  H     0.013282     -0.207299      0.193053 
 N82  N    -0.021634     -0.020112      0.188304 
 H83  H     0.085005     -0.098072      0.191651 
 C84  C     0.266466      0.321253      0.057569 
 C85  C     0.301824      0.316280     -0.006975 
 C86  C     0.270256      0.257244     -0.064665 
 C87  C     0.201769      0.202123     -0.056428 
 C88  C     0.166900      0.204485      0.008864 
 C89  C     0.200885      0.257691      0.067648 
 O90  O     0.308743      0.256182     -0.125992 
 C91  C     0.282216      0.191359     -0.186002 
 C92  C     0.227701      0.271162     -0.226723 
 C93  C     0.202917      0.211087     -0.295539 
 C94  C     0.264681      0.197212     -0.349062 
 O95  O     0.171369      0.248628      0.133535 
 C96  C     0.216624      0.284221      0.192085 
 C97  C     0.197191      0.211541      0.257603 
 C98  C     0.207240      0.070070      0.249785 
 C99  C     0.283577      0.030658      0.224889 
 H100  H     0.175571      0.157494     -0.101068 
 H101  H     0.291401      0.373535      0.100278 
 H102  H     0.274950      0.267692      0.181291 
 H103  H     0.208871      0.384494      0.200571 
 H104  H     0.330751      0.170612     -0.217876 
 H105  H     0.258236      0.101908     -0.170519 
 H106  H     0.231802      0.244192      0.301040 
 H107  H     0.140634      0.233700      0.272772 
 H108  H     0.179344      0.291713     -0.194456 
 H109  H     0.252935      0.361510     -0.238393 
 H110  H     0.179213      0.119401     -0.284361 
 H111  H     0.158429      0.267119     -0.318858 
 H112  H     0.195298      0.024685      0.300225 
 H113  H     0.166763      0.035174      0.212172 
 H114  H     0.289451     -0.071114      0.224451 
 H115  H     0.293624      0.063020      0.171154 
 H116  H     0.326883      0.068575      0.258454 
 H117  H     0.245432      0.149785     -0.396509 
 H118  H     0.286059      0.288289     -0.364838 
 H119  H     0.310894      0.143599     -0.327962 
 C120  C     0.251447     -0.345754     -0.038815 
 C121  C     0.304939     -0.274988     -0.005021 
 C122  C     0.286750     -0.167576      0.032834 
 C123  C     0.213424     -0.134125      0.040103 
 C124  C     0.160171     -0.203843      0.005548 
 C125  C     0.177781     -0.310715     -0.032896 
 O126  O     0.336884     -0.094491      0.065616 
 C127  C     0.380994     -0.019897      0.020029 
 C128  C     0.416567      0.083259      0.062462 
 C129  C     0.460027      0.038581      0.126740 
 C130  C    -0.480275     -0.055899      0.108749 
 O131  O     0.122238     -0.373826     -0.065141 
 C132  C     0.128692      0.493437     -0.070252 
 C133  C     0.060677      0.438353     -0.104290 
 C134  C    -0.009553      0.442632     -0.060258 
 C135  C    -0.038017     -0.425939     -0.045005 
 H136  H     0.199365     -0.050847      0.069949 
 H137  H     0.267135     -0.428250     -0.068585 
 H138  H     0.177034      0.469572     -0.101796 
 H139  H     0.136853      0.455270     -0.017154 
 H140  H     0.422408     -0.079495     -0.005120 
 H141  H     0.346434      0.020186     -0.021811 
 H142  H     0.050171      0.485213     -0.154663 
 H143  H     0.072246      0.340471     -0.117127 
 H144  H     0.452844      0.137538      0.028042 
 H145  H     0.373932      0.148383      0.080268 
 H146  H     0.484734      0.119932      0.152278 
 H147  H     0.422669     -0.002519      0.165422 
 H148  H    -0.052304      0.390441     -0.088059 
 H149  H    -0.000556      0.392182     -0.010591 
 H150  H    -0.044463     -0.370835     -0.093218 
 H151  H    -0.091484     -0.429731     -0.019160 
 H152  H    -0.001038     -0.374901     -0.010119 
 H153  H    -0.442378     -0.017159      0.069961 
 H154  H    -0.449167     -0.082726      0.155684 
 H155  H     0.496519     -0.141305      0.086598 
 N156  N     0.486600     -0.486104      0.311858 
 C157  C     0.471673     -0.357471      0.287522 
 C158  C    -0.443100      0.473173      0.281484 
 C159  C     0.428306      0.432666      0.283945 
 C160  C    -0.447769      0.470625      0.199957 
 H161  H    -0.399984     -0.463150      0.299026 
 H162  H    -0.428312      0.380735      0.302072 
 C163  C     0.474379     -0.350039      0.205795 
 H164  H     0.417163     -0.329003      0.306405 
 H165  H    -0.488636     -0.293350      0.311461 
 C166  C     0.422674      0.445201      0.202577 
 H167  H     0.440906      0.335559      0.298872 
 H168  H     0.375765      0.456768      0.308799 
 H169  H     0.424776     -0.304350      0.184824 
 H170  H    -0.478747     -0.293695      0.188628 
 H171  H    -0.401707     -0.479140      0.176089 
 H172  H    -0.444566      0.373854      0.181518 
 H173  H     0.369906      0.487146      0.187019 
 N174  N     0.482178     -0.475761      0.175308 
 H175  H     0.425430      0.352624      0.177911 
 C176  C    -0.212419     -0.275447     -0.049484 
 C177  C    -0.196625     -0.191118      0.003977 
 C178  C    -0.249082     -0.152046      0.052605 
 C179  C    -0.318221     -0.206018      0.049744 
 C180  C    -0.334383     -0.289456     -0.003865 
 C181  C    -0.282253     -0.326476     -0.053293 
 O182  O    -0.232516     -0.060613      0.100104 
 C183  C    -0.292877      0.008881      0.128182 
 C184  C    -0.268370      0.122687      0.168847 
 C185  C    -0.333325      0.203621      0.191984 
 C186  C    -0.378640      0.145272      0.251037 
 O187  O    -0.302051     -0.410850     -0.103170 
 C188  C    -0.247392     -0.486803     -0.136014 
 C189  C    -0.288158      0.433092     -0.188472 
 C190  C    -0.238949      0.358675     -0.237898 
 C191  C    -0.195433      0.254535     -0.201715 
 H192  H    -0.359704     -0.182853      0.088563 
 H193  H    -0.170877     -0.300496     -0.087942 
 H194  H    -0.206172     -0.429396     -0.162488 
 H195  H    -0.219168      0.456333     -0.096045 
 H196  H    -0.328139      0.038345      0.084247 
 H197  H    -0.324397     -0.052573      0.162748 
 H198  H    -0.324121      0.368831     -0.159832 
 H199  H    -0.323804      0.493340     -0.220598 
 H200  H    -0.236520      0.095584      0.215373 
 H201  H    -0.231318      0.178284      0.136182 
 H202  H    -0.313134      0.295126      0.208627 
 H203  H    -0.368672      0.221411      0.146204 
 H204  H    -0.272770      0.319216     -0.279968 
 H205  H    -0.201449      0.423580     -0.263769 
 H206  H    -0.232071      0.187251     -0.176682 
 H207  H    -0.161798      0.203506     -0.239679 
 H208  H    -0.158785      0.291012     -0.161041 
 H209  H    -0.397113      0.051282      0.237766 
 H210  H    -0.346695      0.139340      0.299742 
 H211  H    -0.427982      0.200101      0.262329 
 Cu212  Cu    -0.000316     -0.007274     -0.424773 
 Cu213  Cu    -0.006690     -0.017287      0.438774 
 O214  O    -0.093833      0.090492      0.452736 
 C215  C    -0.123639      0.108263     -0.487791 
 O216  O    -0.095428      0.080601     -0.428795 
 O217  O     0.057586      0.128661      0.439640 
 C218  C     0.083618      0.170916      0.496491 
 O219  O     0.056712      0.152310     -0.442724 
 O220  O    -0.070384     -0.161684      0.451256 
 C221  C    -0.091676     -0.191586     -0.487571 
 O222  O    -0.057354     -0.168368     -0.430882 
 O223  O     0.081619     -0.123055      0.448083 
 C224  C     0.117230     -0.130221     -0.494731 
 O225  O     0.093934     -0.095835     -0.435068 
 Cu226  Cu     0.494666      0.480996     -0.439041 
 Cu227  Cu     0.497930      0.497241      0.424596 
 O228  O     0.432188     -0.360501      0.437156 
 C229  C     0.410995     -0.330359      0.498181 
 O230  O     0.444808     -0.354855     -0.445048 
 O231  O    -0.415522     -0.393357      0.442512 
 C232  C    -0.383409     -0.392510     -0.498082 
 O233  O    -0.408216     -0.439682     -0.441717 
 O234  O     0.409595      0.388558      0.429260 
 C235  C     0.374046      0.375673      0.486039 
 O236  O     0.396825      0.405198     -0.453156 
 O237  O    -0.436839      0.352052      0.427365 
 C238  C    -0.415648      0.312350      0.486834 
 O239  O    -0.452231      0.321222     -0.456494 
 C240  C    -0.321418      0.195891     -0.446058 
 C241  C    -0.339559      0.259925      0.492299 
 C242  C    -0.287060      0.278598      0.439573 
 C243  C    -0.217372      0.226616      0.448499 
 C244  C    -0.199148      0.162862     -0.490000 
 C245  C    -0.250494      0.148268     -0.435962 
 O246  O    -0.303404      0.347735      0.380845 
 C247  C    -0.244705      0.400362      0.340235 
 C248  C    -0.206384     -0.498402      0.382437 
 C249  C    -0.129263     -0.463125      0.357493 
 C250  C    -0.070631      0.437929      0.373325 
 O251  O    -0.229853      0.087193     -0.375720 
 C252  C    -0.283367      0.057818     -0.323136 
 C253  C    -0.322991     -0.061902     -0.341949 
 C254  C    -0.278916     -0.180597     -0.325979 
 C255  C    -0.267561     -0.206939     -0.247697 
 H256  H    -0.176392      0.236350      0.407407 
 H257  H    -0.363240      0.184108     -0.405892 
 H258  H    -0.253752      0.046641     -0.273342 
 H259  H    -0.321802      0.135507     -0.315163 
 H260  H    -0.207261      0.327018      0.321828 
 H261  H    -0.269532      0.441540      0.292921 
 H262  H    -0.375179     -0.066549     -0.313675 
 H263  H    -0.337416     -0.060920     -0.398033 
 H264  H    -0.241374     -0.414733      0.381716 
 H265  H    -0.202543      0.473893      0.437808 
 H266  H    -0.130313     -0.443101      0.300994 
 H267  H    -0.113468     -0.375540      0.383053 
 H268  H    -0.307490     -0.260056     -0.349497 
 H269  H    -0.225498     -0.175119     -0.352269 
 H270  H    -0.237411     -0.132471     -0.221295 
 H271  H    -0.319982     -0.218566     -0.220427 
 H272  H    -0.235930     -0.293103     -0.240600 
 H273  H    -0.016265      0.469058      0.356567 
 H274  H    -0.067135      0.417583      0.429729 
 H275  H    -0.082110      0.350294      0.346278 
 N276  N    -0.008956     -0.013247     -0.174524 
 C277  C    -0.078807     -0.061480     -0.202439 
 C278  C     0.002721      0.113488     -0.202804 
 C279  C     0.050852     -0.093758     -0.200662 
 C280  C    -0.000398      0.112754     -0.284476 
 H281  H    -0.038466      0.178086     -0.181316 
 H282  H     0.056517      0.146689     -0.184850 
 C283  C    -0.077113     -0.066162     -0.284107 
 H284  H    -0.088418     -0.155328     -0.180921 
 H285  H    -0.124031     -0.001690     -0.184055 
 C286  C     0.053069     -0.091668     -0.282402 
 H287  H     0.103276     -0.062003     -0.178514 
 H288  H     0.042237     -0.189420     -0.181320 
 H289  H    -0.083285     -0.162544     -0.302555 
 H290  H    -0.123127     -0.012701     -0.306483 
 H291  H    -0.047894      0.167060     -0.303044 
 H292  H     0.048607      0.156532     -0.306894 
 H293  H     0.048710     -0.186733     -0.303211 
 N294  N    -0.007602     -0.015447     -0.311104 
 H295  H     0.105455     -0.053888     -0.301108 
 C296  C     0.243192      0.394735     -0.481561 
 C297  C     0.297083      0.329744      0.481467 
 C298  C     0.280506      0.219964      0.445650 
 C299  C     0.209437      0.172159      0.449424 
 C300  C     0.156211      0.233927      0.489306 
 C301  C     0.171680      0.348135     -0.478730 
 O302  O     0.334811      0.162667      0.408461 
 C303  C     0.340646      0.029861      0.413790 
 C304  C     0.421048     -0.003073      0.423746 
 C305  C     0.452261      0.048805      0.492395 
 C306  C    -0.473638     -0.007146     -0.486708 
 O307  O     0.116823      0.409147     -0.444238 
 C308  C     0.116433     -0.457006     -0.445505 
 C309  C     0.118306     -0.407932     -0.370916 
 C310  C     0.188418     -0.436000     -0.329369 
 C311  C     0.180107     -0.407567     -0.251159 
 H312  H     0.196639      0.085344      0.422603 
 H313  H     0.257578      0.479295     -0.453173 
 H314  H     0.161813     -0.419694     -0.476613 
 H315  H     0.065699     -0.426750     -0.472006 
 H316  H     0.308618     -0.004430      0.458584 
 H317  H     0.318173     -0.012955      0.366190 
 H318  H     0.109556     -0.306701     -0.372588 
 H319  H     0.071706     -0.446361     -0.342163 
 H320  H     0.427713     -0.104915      0.423151 
 H321  H     0.453270      0.032389      0.379312 
 H322  H     0.457405      0.150525      0.487699 
 H323  H     0.412742      0.033181     -0.465301 
 H324  H     0.203570      0.465691     -0.335945 
 H325  H     0.233863     -0.382024     -0.351365 
 H326  H     0.162452     -0.311013     -0.242400 
 H327  H     0.138824     -0.468104     -0.227444 
 H328  H     0.231674     -0.422364     -0.222567 
 H329  H    -0.455465      0.029903     -0.436077 
 H330  H    -0.476192     -0.109065     -0.481854 
 H331  H    -0.431630      0.015578      0.474417 
 C332  C     0.238142     -0.167973     -0.437323 
 C333  C     0.194210     -0.178474     -0.497311 
 C334  C     0.221323     -0.236743      0.442406 
 C335  C     0.293188     -0.280811      0.441317 
 C336  C     0.336522     -0.272725     -0.498459 
 C337  C     0.309416     -0.216583     -0.437710 
 O338  O     0.179964     -0.250066      0.383526 
 C339  C     0.163933     -0.375820      0.363963 
 C340  C     0.165337     -0.383645      0.284567 
 C341  C     0.239741     -0.352530      0.252071 
 C342  C     0.237205     -0.344394      0.171998 
 O343  O     0.350590     -0.217557     -0.378114 
 C344  C     0.371428     -0.099728     -0.350452 
 C345  C     0.364394     -0.105294     -0.271238 
 C346  C     0.286685     -0.132274     -0.245694 
 C347  C     0.282354     -0.152297     -0.166405 
 H348  H     0.313451     -0.324388      0.393564 
 H349  H     0.217418     -0.125337     -0.389478 
 H350  H     0.428589     -0.082760     -0.365679 
 H351  H     0.337546     -0.025213     -0.373453 
 H352  H     0.202897     -0.442622      0.387539 
 H353  H     0.109236     -0.398343      0.384396 
 H354  H     0.402151     -0.176430     -0.250285 
 H355  H     0.382081     -0.016207     -0.249100 
 H356  H     0.149726     -0.478326      0.269167 
 H357  H     0.123480     -0.320860      0.262446 
 H358  H     0.259223     -0.263310      0.272976 
 H359  H     0.280058     -0.423150      0.268491 
 H360  H     0.249924     -0.055850     -0.261544 
 H361  H     0.266394     -0.215645     -0.272358 
 H362  H     0.304026     -0.072985     -0.136987 
 H363  H     0.225645     -0.166986     -0.149468 
 H364  H     0.314393     -0.234475     -0.150688 
 H365  H     0.291206     -0.321878      0.150416 
 H366  H     0.219337     -0.431742      0.147885 
 H367  H     0.198864     -0.271236      0.154878 
 N368  N     0.477069     -0.495402     -0.189080 
 C369  C     0.402993     -0.484941     -0.219761 
 C370  C    -0.479140     -0.391016     -0.216690 
 C371  C    -0.490426      0.385955     -0.213471 
 C372  C    -0.478574     -0.392105     -0.298466 
 H373  H     0.498351     -0.302455     -0.196916 
 H374  H    -0.423009     -0.398791     -0.196056 
 C375  C     0.406224     -0.498678     -0.301185 
 H376  H     0.367281      0.443989     -0.196490 
 H377  H     0.379612     -0.393938     -0.205233 
 C378  C    -0.482332      0.384993     -0.294947 
 H379  H    -0.436922      0.370811     -0.188429 
 H380  H     0.474042      0.309548     -0.195801 
 H381  H     0.379029      0.414834     -0.317484 
 H382  H     0.376777     -0.421898     -0.327316 
 H383  H     0.494696     -0.307757     -0.319652 
 H384  H    -0.421823     -0.391596     -0.317784 
 H385  H     0.492697      0.300947     -0.317549 
 N386  N     0.482973      0.497020     -0.325714 
 H387  H    -0.424065      0.383342     -0.309892 
 C388  C    -0.256014     -0.399668     -0.452094 
 C389  C    -0.308526     -0.337486     -0.493105 
 C390  C    -0.291333     -0.227993      0.470674 
 C391  C    -0.220577     -0.179789      0.476503 
 C392  C    -0.167441     -0.243361     -0.484337 
 C393  C    -0.184281     -0.353852     -0.448835 
 O394  O    -0.345513     -0.172164      0.431958 
 C395  C    -0.327350     -0.077081      0.382240 
 C396  C    -0.282185     -0.131428      0.322430 
 C397  C    -0.321988     -0.232143      0.280655 
 C398  C    -0.272817     -0.296615      0.226769 
 O399  O    -0.129563     -0.412693     -0.412622 
 C400  C    -0.131774      0.454191     -0.407075 
 C401  C    -0.059773      0.410359     -0.375308 
 C402  C    -0.049276      0.435542     -0.296399 
 C403  C    -0.063297     -0.429660     -0.273340 
 H404  H    -0.206149     -0.093465      0.449691 
 H405  H    -0.270474     -0.484758     -0.424061 
 H406  H    -0.178307      0.424252     -0.374918 
 H407  H    -0.138934      0.414708     -0.459789 
 H408  H    -0.379561     -0.039581      0.362259 
 H409  H    -0.299253      0.000096      0.408659 
 H410  H    -0.053806      0.309937     -0.385023 
 H411  H    -0.015236      0.453909     -0.404878 
 H412  H    -0.266075     -0.055970      0.286803 
 H413  H    -0.230837     -0.171330      0.342812 
 H414  H    -0.343030     -0.301755      0.317703 
 H415  H    -0.370068     -0.190988      0.254425 
 H416  H    -0.084727      0.373202     -0.266245 
 H417  H     0.006896      0.408361     -0.281794 
 H418  H    -0.120645     -0.402023     -0.281344 
 H419  H    -0.051053     -0.417580     -0.217427 
 H420  H    -0.029326     -0.364024     -0.302855 
 H421  H    -0.303353     -0.364332      0.195458 
 H422  H    -0.248405     -0.229504      0.190451 
 H423  H    -0.227569     -0.346307      0.252533 
loop_  
_geom_bond_atom_site_label_1  
_geom_bond_atom_site_label_2  
Cu0   Cu1 
Cu0   O4 
Cu0   O7 
Cu0   O10 
Cu0   O13 
Cu0   N82 
Cu1   O2 
Cu1   O5 
Cu1   O8 
Cu1   O11 
Cu1   N276 
O2   C3 
C3   O4 
C3   C29 
O5   C6 
C6   O7 
C6   C88 
O8   C9 
C9   O10 
C9   C177 
O11   C12 
C12   O13 
C12   C124 
Cu14   Cu15 
Cu14   O18 
Cu14   O21 
Cu14   O24 
Cu14   O27 
Cu14   N174 
Cu15   O16 
Cu15   O19 
Cu15   O22 
Cu15   O25 
Cu15   N368 
O16   C17 
C17   O18 
C17   C121 
O19   C20 
C20   O21 
C20   C180 
O22   C23 
C23   O24 
C23   C85 
O25   C26 
C26   O27 
C26   C32 
C28   C29 
C28   C33 
C28   H45 
C29   C30 
C30   C31 
C30   O34 
C31   C32 
C31   H44 
C32   C33 
C33   O39 
O34   C35 
C35   C36 
C35   H48 
C35   H49 
C36   C37 
C36   H52 
C36   H53 
C37   C38 
C37   H54 
C37   H55 
C38   H61 
C38   H62 
C38   H63 
O39   C40 
C40   C41 
C40   H46 
C40   H47 
C41   C42 
C41   H50 
C41   H51 
C42   C43 
C42   H56 
C42   H57 
C43   H58 
C43   H59 
C43   H60 
N64   C65 
N64   C66 
N64   C67 
N64   Cu213 
C65   C71 
C65   H72 
C65   H73 
C66   C68 
C66   H69 
C66   H70 
C67   C74 
C67   H75 
C67   H76 
C68   H79 
C68   H80 
C68   N82 
C71   H77 
C71   H78 
C71   N82 
C74   H81 
C74   N82 
C74   H83 
C84   C85 
C84   C89 
C84   H101 
C85   C86 
C86   C87 
C86   O90 
C87   C88 
C87   H100 
C88   C89 
C89   O95 
O90   C91 
C91   C92 
C91   H104 
C91   H105 
C92   C93 
C92   H108 
C92   H109 
C93   C94 
C93   H110 
C93   H111 
C94   H117 
C94   H118 
C94   H119 
O95   C96 
C96   C97 
C96   H102 
C96   H103 
C97   C98 
C97   H106 
C97   H107 
C98   C99 
C98   H112 
C98   H113 
C99   H114 
C99   H115 
C99   H116 
C120   C121 
C120   C125 
C120   H137 
C121   C122 
C122   C123 
C122   O126 
C123   C124 
C123   H136 
C124   C125 
C125   O131 
O126   C127 
C127   C128 
C127   H140 
C127   H141 
C128   C129 
C128   H144 
C128   H145 
C129   C130 
C129   H146 
C129   H147 
C130   H153 
C130   H154 
C130   H155 
O131   C132 
C132   C133 
C132   H138 
C132   H139 
C133   C134 
C133   H142 
C133   H143 
C134   C135 
C134   H148 
C134   H149 
C135   H150 
C135   H151 
C135   H152 
N156   C157 
N156   C158 
N156   C159 
N156   Cu227 
C157   C163 
C157   H164 
C157   H165 
C158   C160 
C158   H161 
C158   H162 
C159   C166 
C159   H167 
C159   H168 
C160   H171 
C160   H172 
C160   N174 
C163   H169 
C163   H170 
C163   N174 
C166   H173 
C166   N174 
C166   H175 
C176   C177 
C176   C181 
C176   H193 
C177   C178 
C178   C179 
C178   O182 
C179   C180 
C179   H192 
C180   C181 
C181   O187 
O182   C183 
C183   C184 
C183   H196 
C183   H197 
C184   C185 
C184   H200 
C184   H201 
C185   C186 
C185   H202 
C185   H203 
C186   H209 
C186   H210 
C186   H211 
O187   C188 
C188   C189 
C188   H194 
C188   H195 
C189   C190 
C189   H198 
C189   H199 
C190   C191 
C190   H204 
C190   H205 
C191   H206 
C191   H207 
C191   H208 
Cu212   Cu213 
Cu212   O216 
Cu212   O219 
Cu212   O222 
Cu212   O225 
Cu212   N294 
Cu213   O214 
Cu213   O217 
Cu213   O220 
Cu213   O223 
O214   C215 
C215   O216 
C215   C244 
O217   C218 
C218   O219 
C218   C300 
O220   C221 
C221   O222 
C221   C392 
O223   C224 
C224   O225 
C224   C333 
Cu226   Cu227 
Cu226   O230 
Cu226   O233 
Cu226   O236 
Cu226   O239 
Cu226   N386 
Cu227   O228 
Cu227   O231 
Cu227   O234 
Cu227   O237 
O228   C229 
C229   O230 
C229   C336 
O231   C232 
C232   O233 
C232   C389 
O234   C235 
C235   O236 
C235   C297 
O237   C238 
C238   O239 
C238   C241 
C240   C241 
C240   C245 
C240   H257 
C241   C242 
C242   C243 
C242   O246 
C243   C244 
C243   H256 
C244   C245 
C245   O251 
O246   C247 
C247   C248 
C247   H260 
C247   H261 
C248   C249 
C248   H264 
C248   H265 
C249   C250 
C249   H266 
C249   H267 
C250   H273 
C250   H274 
C250   H275 
O251   C252 
C252   C253 
C252   H258 
C252   H259 
C253   C254 
C253   H262 
C253   H263 
C254   C255 
C254   H268 
C254   H269 
C255   H270 
C255   H271 
C255   H272 
N276   C277 
N276   C278 
N276   C279 
C277   C283 
C277   H284 
C277   H285 
C278   C280 
C278   H281 
C278   H282 
C279   C286 
C279   H287 
C279   H288 
C280   H291 
C280   H292 
C280   N294 
C283   H289 
C283   H290 
C283   N294 
C286   H293 
C286   N294 
C286   H295 
C296   C297 
C296   C301 
C296   H313 
C297   C298 
C298   C299 
C298   O302 
C299   C300 
C299   H312 
C300   C301 
C301   O307 
O302   C303 
C303   C304 
C303   H316 
C303   H317 
C304   C305 
C304   H320 
C304   H321 
C305   C306 
C305   H322 
C305   H323 
C306   H329 
C306   H330 
C306   H331 
O307   C308 
C308   C309 
C308   H314 
C308   H315 
C309   C310 
C309   H318 
C309   H319 
C310   C311 
C310   H324 
C310   H325 
C311   H326 
C311   H327 
C311   H328 
C332   C333 
C332   C337 
C332   H349 
C333   C334 
C334   C335 
C334   O338 
C335   C336 
C335   H348 
C336   C337 
C337   O343 
O338   C339 
C339   C340 
C339   H352 
C339   H353 
C340   C341 
C340   H356 
C340   H357 
C341   C342 
C341   H358 
C341   H359 
C342   H365 
C342   H366 
C342   H367 
O343   C344 
C344   C345 
C344   H350 
C344   H351 
C345   C346 
C345   H354 
C345   H355 
C346   C347 
C346   H360 
C346   H361 
C347   H362 
C347   H363 
C347   H364 
N368   C369 
N368   C370 
N368   C371 
C369   C375 
C369   H376 
C369   H377 
C370   C372 
C370   H373 
C370   H374 
C371   C378 
C371   H379 
C371   H380 
C372   H383 
C372   H384 
C372   N386 
C375   H381 
C375   H382 
C375   N386 
C378   H385 
C378   N386 
C378   H387 
C388   C389 
C388   C393 
C388   H405 
C389   C390 
C390   C391 
C390   O394 
C391   C392 
C391   H404 
C392   C393 
C393   O399 
O394   C395 
C395   C396 
C395   H408 
C395   H409 
C396   C397 
C396   H412 
C396   H413 
C397   C398 
C397   H414 
C397   H415 
C398   H421 
C398   H422 
C398   H423 
O399   C400 
C400   C401 
C400   H406 
C400   H407 
C401   C402 
C401   H410 
C401   H411 
C402   C403 
C402   H416 
C402   H417 
C403   H418 
C403   H419 
C403   H420 
  
#END  
