data_
_symmetry_cell_setting           triclinic 
_symmetry_space_group_name_H-M   'P 1' 
_symmetry_Int_Tables_number      1 
loop_ 
_symmetry_equiv_pos_site_id 
_symmetry_equiv_pos_as_xyz 
1 x,y,z 
_cell_length_a             14.849546        
_cell_length_b             15.938340        
_cell_length_c             19.147924        
_cell_angle_alpha          89.310231        
_cell_angle_beta           90.930987        
_cell_angle_gamma          89.908234        
loop_  
_atom_site_label   
_atom_site_type_symbol  
_atom_site_fract_x  
_atom_site_fract_y  
_atom_site_fract_z 
 Cu0  Cu    -0.012674      0.003751      0.069816 
 Cu1  Cu    -0.010557      0.006748     -0.066192 
 O2  O    -0.084880      0.110218     -0.058629 
 C3  C    -0.126457      0.124143     -0.002126 
 O4  O    -0.111536      0.086950      0.056236 
 O5  O     0.102193      0.073383     -0.056261 
 C6  C     0.116828      0.111588      0.000836 
 O7  O     0.078695      0.096005      0.058867 
 O8  O    -0.123142     -0.061815     -0.058473 
 C9  C    -0.140680     -0.101425     -0.002148 
 O10  O    -0.103673     -0.087263      0.057129 
 O11  O     0.064340     -0.096305     -0.053592 
 C12  C     0.098760     -0.118448      0.005202 
 O13  O     0.083380     -0.083387      0.063306 
 Cu14  Cu     0.487260     -0.498933      0.066327 
 Cu15  Cu     0.487783     -0.495216     -0.069648 
 O16  O     0.379966     -0.421983     -0.062421 
 C17  C     0.360339     -0.388405     -0.004540 
 O18  O     0.396163     -0.407346      0.054566 
 O19  O    -0.433311     -0.394591     -0.056927 
 C20  C    -0.394969     -0.378841      0.001566 
 O21  O    -0.411537     -0.416585      0.058981 
 O22  O     0.410437      0.402013     -0.058998 
 C23  C     0.372843      0.383847     -0.001268 
 O24  O     0.386059      0.420724      0.056592 
 O25  O    -0.403266      0.434062     -0.058897 
 C26  C    -0.386300      0.394833     -0.001906 
 O27  O    -0.425130      0.407167      0.056029 
 C28  C    -0.329628      0.257887      0.042478 
 C29  C    -0.317616      0.325900     -0.003107 
 C30  C    -0.245341      0.327501     -0.049438 
 C31  C    -0.185832      0.259059     -0.050889 
 C32  C    -0.197601      0.191176     -0.004821 
 C33  C    -0.272130      0.188284      0.039360 
 O34  O    -0.235542      0.394989     -0.093471 
 C35  C    -0.148656      0.434091     -0.094958 
 C36  C    -0.133556      0.486416     -0.029665 
 C37  C    -0.036337     -0.481649     -0.023203 
 C38  C    -0.017986     -0.426999      0.040577 
 O39  O    -0.287016      0.118844      0.080206 
 C40  C    -0.377546      0.086790      0.081522 
 C41  C    -0.391162      0.022448      0.024165 
 C42  C    -0.487985     -0.011363      0.021500 
 C43  C     0.495917     -0.076433     -0.035562 
 H44  H    -0.129606      0.259635     -0.086938 
 H45  H    -0.385231      0.258163      0.079129 
 H46  H    -0.387887      0.058497      0.133452 
 H47  H    -0.427838      0.137188      0.075329 
 H48  H    -0.095301      0.386658     -0.099928 
 H49  H    -0.146901      0.474172     -0.142172 
 H50  H    -0.374374      0.050238     -0.026890 
 H51  H    -0.343608     -0.030042      0.032172 
 H52  H    -0.180530     -0.459926     -0.030794 
 H53  H    -0.149956      0.449659      0.017468 
 H54  H     0.010402      0.464613     -0.022340 
 H55  H    -0.021157     -0.444924     -0.070346 
 H56  H     0.496038     -0.039188      0.072696 
 H57  H     0.464747      0.041307      0.013557 
 H58  H     0.425814     -0.098481     -0.035976 
 H59  H    -0.490113     -0.049990     -0.087511 
 H60  H    -0.460633     -0.131613     -0.027172 
 H61  H     0.052483     -0.406026      0.042147 
 H62  H    -0.060374     -0.370468      0.038674 
 H63  H    -0.031319     -0.461239      0.089461 
 N64  N    -0.008189      0.008083      0.321716 
 C65  C     0.083411     -0.005146      0.294355 
 C66  C    -0.067828     -0.057920      0.293259 
 C67  C    -0.041444      0.090170      0.294792 
 C68  C    -0.071151     -0.053675      0.211581 
 H69  H    -0.042792     -0.119676      0.311485 
 H70  H    -0.135824     -0.050389      0.314745 
 C71  C     0.081816     -0.004954      0.212586 
 H72  H     0.128033      0.044738      0.314232 
 H73  H     0.110671     -0.064979      0.315068 
 C74  C    -0.039892      0.093405      0.212991 
 H75  H    -0.110527      0.100017      0.313402 
 H76  H     0.000156      0.140691      0.317256 
 H77  H     0.128336      0.042718      0.191773 
 H78  H     0.104909     -0.065901      0.193009 
 H79  H    -0.052600     -0.114739      0.189412 
 H80  H    -0.140005     -0.039083      0.192734 
 H81  H     0.006228      0.142786      0.194554 
 N82  N    -0.010111      0.012078      0.184790 
 H83  H    -0.107229      0.108946      0.191329 
 C84  C     0.272554      0.166389     -0.020438 
 C85  C     0.183381      0.182138     -0.001318 
 C86  C     0.155619      0.262688      0.017590 
 C87  C     0.217863      0.328794      0.018236 
 C88  C     0.306938      0.312961     -0.000630 
 C89  C     0.334873      0.232560     -0.019679 
 O90  O     0.066467      0.274445      0.031120 
 C91  C     0.046060      0.317628      0.093869 
 C92  C    -0.053355      0.305631      0.108384 
 C93  C    -0.084507      0.347266      0.175760 
 C94  C    -0.184799      0.333264      0.189110 
 O95  O     0.424288      0.221143     -0.032594 
 C96  C     0.445690      0.187022     -0.098978 
 C97  C    -0.455142      0.202635     -0.112778 
 C98  C    -0.424109      0.170962     -0.183965 
 C99  C    -0.323454      0.185380     -0.196239 
 H100  H     0.196214      0.392088      0.031269 
 H101  H     0.294711      0.103262     -0.033329 
 H102  H     0.431247      0.119379     -0.098041 
 H103  H     0.402752      0.217455     -0.139394 
 H104  H     0.088172      0.291188      0.136647 
 H105  H     0.062004      0.384623      0.087439 
 H106  H    -0.441454      0.270303     -0.109152 
 H107  H    -0.414085      0.172693     -0.071149 
 H108  H    -0.093419      0.330402      0.063901 
 H109  H    -0.068108      0.238002      0.111185 
 H110  H    -0.044726      0.322373      0.220424 
 H111  H    -0.070704      0.415067      0.172958 
 H112  H    -0.439013      0.103529     -0.187855 
 H113  H    -0.463642      0.202267     -0.225897 
 H114  H    -0.303500      0.162731     -0.247730 
 H115  H    -0.306377      0.252379     -0.193798 
 H116  H    -0.281897      0.152240     -0.156618 
 H117  H    -0.205618      0.362186      0.238082 
 H118  H    -0.226730      0.360120      0.146557 
 H119  H    -0.199972      0.265943      0.192776 
 C120  C     0.241632     -0.309237      0.057186 
 C121  C     0.289407     -0.320845     -0.004476 
 C122  C     0.274080     -0.268263     -0.062824 
 C123  C     0.210070     -0.203644     -0.058395 
 C124  C     0.163731     -0.190879      0.003829 
 C125  C     0.178411     -0.243914      0.062094 
 O126  O     0.323645     -0.281813     -0.121519 
 C127  C     0.325070     -0.218780     -0.175426 
 C128  C     0.386789     -0.247413     -0.233110 
 C129  C     0.384775     -0.189674     -0.297930 
 C130  C     0.444313     -0.221097     -0.356914 
 O131  O     0.130075     -0.229810      0.121481 
 C132  C     0.137513     -0.288219      0.178911 
 C133  C     0.084769     -0.256167      0.240579 
 C134  C     0.096426     -0.310893      0.306826 
 C135  C     0.046206     -0.276935      0.369904 
 H136  H     0.197207     -0.162190     -0.103219 
 H137  H     0.255327     -0.350639      0.101876 
 H138  H     0.110496     -0.348989      0.161785 
 H139  H     0.208833     -0.296178      0.194160 
 H140  H     0.256363     -0.208253     -0.196266 
 H141  H     0.350372     -0.160292     -0.152385 
 H142  H     0.107010     -0.192044      0.252394 
 H143  H     0.012788     -0.251905      0.226106 
 H144  H     0.456269     -0.252152     -0.212368 
 H145  H     0.367285     -0.310903     -0.249079 
 H146  H     0.314980     -0.183228     -0.317658 
 H147  H     0.405952     -0.126240     -0.282948 
 H148  H     0.073440     -0.375087      0.296128 
 H149  H     0.168559     -0.316391      0.320419 
 H150  H     0.057337     -0.316987      0.416401 
 H151  H     0.069212     -0.213588      0.383126 
 H152  H    -0.026772     -0.273146      0.360245 
 H153  H     0.441225     -0.178330     -0.402376 
 H154  H    -0.484836     -0.226597     -0.340178 
 H155  H     0.422809     -0.283236     -0.374834 
 N156  N    -0.496425      0.483661      0.315918 
 C157  C     0.466426      0.403921      0.289287 
 C158  C     0.447181     -0.446320      0.288524 
 C159  C    -0.405274      0.493604      0.287404 
 C160  C     0.446410     -0.443713      0.207093 
 H161  H     0.378164     -0.453734      0.308107 
 H162  H     0.473532     -0.386701      0.309021 
 C163  C     0.458396      0.406416      0.207671 
 H164  H    -0.488918      0.352415      0.307072 
 H165  H     0.400529      0.391803      0.312845 
 C166  C    -0.408635      0.490817      0.205696 
 H167  H    -0.377832     -0.446076      0.305389 
 H168  H    -0.360776      0.444051      0.309274 
 H169  H     0.492463      0.352196      0.184478 
 H170  H     0.387204      0.402953      0.190819 
 H171  H     0.376713     -0.445248      0.186485 
 H172  H     0.476887     -0.384862      0.187944 
 H173  H    -0.370188      0.436748      0.186588 
 N174  N     0.497495      0.484804      0.179407 
 H175  H    -0.377724     -0.452548      0.183136 
 C176  C    -0.201141     -0.231466      0.050755 
 C177  C    -0.206597     -0.173333     -0.004534 
 C178  C    -0.270687     -0.183915     -0.058672 
 C179  C    -0.329808     -0.252632     -0.055401 
 C180  C    -0.326130     -0.309306      0.001150 
 C181  C    -0.260905     -0.299529      0.054584 
 O182  O    -0.274697     -0.126297     -0.112542 
 C183  C    -0.334325     -0.140711     -0.171081 
 C184  C    -0.321247     -0.070460     -0.224440 
 C185  C    -0.380218     -0.078554     -0.290556 
 C186  C    -0.364209     -0.009022     -0.345027 
 O187  O    -0.256566     -0.356323      0.109061 
 C188  C    -0.187929     -0.346491      0.162182 
 C189  C    -0.200678     -0.412465      0.219043 
 C190  C    -0.126943     -0.411161      0.276012 
 C191  C    -0.142897     -0.473465      0.336205 
 H192  H    -0.380745     -0.261022     -0.096483 
 H193  H    -0.149176     -0.223446      0.091150 
 H194  H    -0.121081     -0.352852      0.138992 
 H195  H    -0.192624     -0.283372      0.184472 
 H196  H    -0.318692     -0.201998     -0.194020 
 H197  H    -0.404544     -0.141965     -0.153518 
 H198  H    -0.265739     -0.401122      0.243727 
 H199  H    -0.204092     -0.475264      0.195744 
 H200  H    -0.333757     -0.009522     -0.199851 
 H201  H    -0.250602     -0.069972     -0.240246 
 H202  H    -0.367127     -0.139777     -0.314458 
 H203  H    -0.451489     -0.078440     -0.275880 
 H204  H    -0.061550     -0.424379      0.252255 
 H205  H    -0.122532     -0.347398      0.297166 
 H206  H    -0.088856     -0.469635      0.375953 
 H207  H    -0.206758     -0.460459      0.362365 
 H208  H    -0.145262      0.461551      0.317822 
 H209  H    -0.407958     -0.017241     -0.391295 
 H210  H    -0.378140      0.053389     -0.323915 
 H211  H    -0.294207     -0.009400     -0.362951 
 Cu212  Cu     0.004722     -0.007668     -0.427388 
 Cu213  Cu    -0.000601     -0.005859      0.436635 
 O214  O    -0.108864      0.066448      0.445884 
 C215  C    -0.123764      0.102138     -0.496217 
 O216  O    -0.082369      0.086938     -0.438628 
 O217  O     0.077441      0.096015      0.443652 
 C218  C     0.117644      0.112225     -0.498669 
 O219  O     0.103512      0.075045     -0.440615 
 O220  O    -0.078845     -0.106591      0.449458 
 C221  C    -0.111400     -0.127600     -0.491564 
 O222  O    -0.094749     -0.090820     -0.434100 
 O223  O     0.108242     -0.079641      0.450798 
 C224  C     0.126516     -0.118583     -0.491945 
 O225  O     0.091941     -0.102314     -0.433270 
 Cu226  Cu    -0.497213      0.493015     -0.434362 
 Cu227  Cu    -0.495250      0.491126      0.429619 
 O228  O     0.429596     -0.405004      0.429831 
 C229  C     0.390768     -0.386453      0.486252 
 O230  O     0.405325     -0.422977     -0.454849 
 O231  O    -0.386697     -0.436961      0.441754 
 C232  C    -0.369296     -0.400632      0.499360 
 O233  O    -0.407005     -0.416480     -0.442654 
 O234  O     0.394781      0.420590      0.440175 
 C235  C     0.376887      0.384070      0.497868 
 O236  O     0.414289      0.399905     -0.443318 
 O237  O    -0.420474      0.387785      0.446884 
 C238  C    -0.382601      0.372348     -0.494027 
 O239  O    -0.397816      0.410657     -0.437440 
 C240  C    -0.337481      0.229378      0.471122 
 C241  C    -0.316111      0.301569     -0.491246 
 C242  C    -0.234032      0.308669     -0.454362 
 C243  C    -0.172833      0.241561     -0.455650 
 C244  C    -0.193243      0.170309     -0.494906 
 C245  C    -0.275512      0.162936      0.468560 
 O246  O    -0.217158      0.381674     -0.419185 
 C247  C    -0.125770      0.405686     -0.404025 
 C248  C    -0.097057      0.376330     -0.330833 
 C249  C     0.003229      0.392286     -0.314716 
 C250  C     0.032818      0.364585     -0.240862 
 O251  O    -0.290328      0.089759      0.433079 
 C252  C    -0.376153      0.070365      0.401532 
 C253  C    -0.378525      0.094424      0.324049 
 C254  C    -0.374241      0.189031      0.307963 
 C255  C    -0.379307      0.209677      0.229767 
 H256  H    -0.108599      0.245106     -0.427249 
 H257  H    -0.402520      0.225746      0.443980 
 H258  H    -0.384674      0.002031      0.407592 
 H259  H    -0.431681      0.099478      0.430012 
 H260  H    -0.080639      0.381467     -0.444263 
 H261  H    -0.123150      0.474663     -0.407959 
 H262  H    -0.322121      0.063182      0.298134 
 H263  H    -0.440460      0.068827      0.300151 
 H264  H    -0.138342      0.408863     -0.292220 
 H265  H    -0.111327      0.308992     -0.323801 
 H266  H     0.044241      0.359127     -0.353137 
 H267  H     0.017774      0.459554     -0.321955 
 H268  H    -0.430020      0.220883      0.333981 
 H269  H    -0.311394      0.215044      0.329975 
 H270  H    -0.373757      0.277527      0.220160 
 H271  H    -0.324051      0.179236      0.202244 
 H272  H    -0.443232      0.188540      0.206265 
 H273  H     0.105095      0.375878     -0.231981 
 H274  H    -0.003755      0.399236     -0.200977 
 H275  H     0.020661      0.297323     -0.232059 
 N276  N    -0.005070      0.015373     -0.179597 
 C277  C     0.054150     -0.052986     -0.203318 
 C278  C    -0.096394      0.000826     -0.208398 
 C279  C     0.028178      0.095566     -0.209020 
 C280  C    -0.094768     -0.004743     -0.289817 
 H281  H    -0.122833     -0.057656     -0.185584 
 H282  H    -0.141082      0.051986     -0.191841 
 C283  C     0.057856     -0.054330     -0.284641 
 H284  H     0.121979     -0.044782     -0.180338 
 H285  H     0.028432     -0.113349     -0.183351 
 C286  C     0.025919      0.093632     -0.290730 
 H287  H    -0.013273      0.147504     -0.189550 
 H288  H     0.097352      0.106221     -0.189354 
 H289  H     0.127000     -0.042586     -0.302400 
 H290  H     0.038386     -0.116697     -0.304072 
 H291  H    -0.117469     -0.066998     -0.307072 
 H292  H    -0.141344      0.041499     -0.314029 
 H293  H     0.092356      0.109069     -0.312037 
 N294  N    -0.002898      0.010143     -0.315726 
 H295  H    -0.021283      0.141297     -0.312057 
 C296  C     0.175933      0.245640      0.449739 
 C297  C     0.185892      0.181966     -0.499656 
 C298  C     0.257265      0.183987     -0.450627 
 C299  C     0.318723      0.250703     -0.452172 
 C300  C     0.308633      0.314460      0.497438 
 C301  C     0.237462      0.312488      0.448260 
 O302  O     0.264045      0.118875     -0.403728 
 C303  C     0.329211      0.120645     -0.347978 
 C304  C     0.295755      0.058224     -0.293918 
 C305  C     0.356231      0.050236     -0.228722 
 C306  C     0.307227      0.009380     -0.167350 
 O307  O     0.231521      0.377899      0.401573 
 C308  C     0.165541      0.377826      0.346357 
 C309  C     0.198725      0.441202      0.292884 
 C310  C     0.137389      0.451048      0.228295 
 C311  C     0.185916      0.492551      0.166995 
 H312  H     0.375556      0.252283     -0.415277 
 H313  H     0.119267      0.244014      0.412721 
 H314  H     0.160256      0.315166      0.322964 
 H315  H     0.099403      0.395375      0.367091 
 H316  H     0.395816      0.103129     -0.367852 
 H317  H     0.333608      0.183801     -0.325406 
 H318  H     0.208325     -0.497211      0.317521 
 H319  H     0.265632      0.421040      0.275897 
 H320  H     0.228422      0.078338     -0.277833 
 H321  H     0.287104     -0.003922     -0.317775 
 H322  H     0.416909      0.013890     -0.241051 
 H323  H     0.379728      0.112946     -0.213919 
 H324  H     0.112783      0.388971      0.212761 
 H325  H     0.077448      0.487849      0.241698 
 H326  H     0.139975     -0.495240      0.122516 
 H327  H     0.215970     -0.447613      0.182646 
 H328  H     0.240791      0.452729      0.148292 
 H329  H     0.352681     -0.001888     -0.122423 
 H330  H     0.251805      0.049242     -0.149635 
 H331  H     0.277838     -0.050931     -0.182440 
 C332  C     0.266877     -0.316475     -0.455487 
 C333  C     0.321079     -0.317541      0.485842 
 C334  C     0.309884     -0.255546      0.433573 
 C335  C     0.247308     -0.190681      0.444218 
 C336  C     0.193838     -0.189189     -0.496044 
 C337  C     0.202934     -0.253040     -0.444891 
 O338  O     0.360009     -0.259167      0.374075 
 C339  C     0.341851     -0.199120      0.318927 
 C340  C     0.388155     -0.227591      0.253125 
 C341  C     0.372806     -0.168650      0.190056 
 C342  C     0.421728     -0.198171      0.124927 
 O343  O     0.151265     -0.256526     -0.385649 
 C344  C     0.170594     -0.326474     -0.339378 
 C345  C     0.118404     -0.332376     -0.272248 
 C346  C     0.157381     -0.403370     -0.225511 
 C347  C     0.106220     -0.419766     -0.158260 
 H348  H     0.239917     -0.140305      0.405390 
 H349  H     0.276321     -0.367547     -0.417421 
 H350  H     0.157805     -0.384446     -0.368797 
 H351  H     0.242603     -0.323382     -0.325049 
 H352  H     0.268775     -0.194355      0.308829 
 H353  H     0.366880     -0.137193      0.335267 
 H354  H     0.121040     -0.272387     -0.244340 
 H355  H     0.047053     -0.344979     -0.284531 
 H356  H     0.460922     -0.234491      0.262987 
 H357  H     0.363091     -0.290405      0.239704 
 H358  H     0.300136     -0.163750      0.178283 
 H359  H     0.395341     -0.104873      0.203151 
 H360  H     0.159479     -0.461772     -0.255607 
 H361  H     0.227794     -0.388727     -0.211761 
 H362  H     0.137016     -0.471708     -0.127979 
 H363  H     0.106739     -0.364418     -0.124612 
 H364  H     0.036096     -0.436781     -0.170155 
 H365  H     0.404140     -0.158771      0.079284 
 H366  H     0.495204     -0.196555      0.132281 
 H367  H     0.403572     -0.262924      0.112018 
 N368  N     0.495931      0.490905     -0.183263 
 C369  C    -0.472702      0.408367     -0.207839 
 C370  C     0.405601     -0.493677     -0.214533 
 C371  C    -0.441778     -0.444111     -0.209737 
 C372  C     0.409271     -0.494271     -0.296173 
 H373  H     0.358847      0.457897     -0.195256 
 H374  H     0.380081     -0.433125     -0.196082 
 C375  C    -0.469154      0.406842     -0.289401 
 H376  H    -0.405560      0.395014     -0.184898 
 H377  H     0.481480      0.359484     -0.188165 
 C378  C    -0.437825     -0.445827     -0.291254 
 H379  H    -0.464423     -0.382068     -0.192113 
 H380  H    -0.374308     -0.454810     -0.186272 
 H381  H    -0.400187      0.392905     -0.306423 
 H382  H     0.487171      0.356975     -0.310523 
 H383  H     0.363333      0.457817     -0.317585 
 H384  H     0.386691     -0.433431     -0.318179 
 H385  H    -0.368500     -0.458181     -0.308323 
 N386  N    -0.498056      0.488565     -0.319729 
 H387  H    -0.457765     -0.384428     -0.313755 
 C388  C    -0.258208     -0.313545     -0.435411 
 C389  C    -0.299526     -0.332601     -0.499388 
 C390  C    -0.279342     -0.285892      0.440584 
 C391  C    -0.215114     -0.221810      0.444064 
 C392  C    -0.175099     -0.201060     -0.491680 
 C393  C    -0.196228     -0.247153     -0.430870 
 O394  O    -0.323257     -0.302246      0.379258 
 C395  C    -0.368978     -0.231981      0.347776 
 C396  C    -0.331511     -0.219598      0.275125 
 C397  C    -0.351903     -0.133072      0.242895 
 C398  C    -0.315106     -0.123778      0.169071 
 O399  O    -0.155865     -0.226648     -0.368520 
 C400  C    -0.169787     -0.280298     -0.308965 
 C401  C    -0.116635     -0.244942     -0.247797 
 C402  C    -0.119338     -0.299821     -0.181505 
 C403  C    -0.061933     -0.263758     -0.121917 
 H404  H    -0.198925     -0.187254      0.396370 
 H405  H    -0.275643     -0.350294     -0.389072 
 H406  H    -0.242028     -0.282351     -0.296774 
 H407  H    -0.146795     -0.344285     -0.320863 
 H408  H    -0.441300     -0.246813      0.346388 
 H409  H    -0.360849     -0.175140      0.379491 
 H410  H    -0.046249     -0.235335     -0.263050 
 H411  H    -0.143387     -0.182551     -0.235724 
 H412  H    -0.257906     -0.227941      0.277859 
 H413  H    -0.357735     -0.268906      0.240471 
 H414  H    -0.425050     -0.121659      0.241885 
 H415  H    -0.321993     -0.084560      0.276445 
 H416  H    -0.189460     -0.306211     -0.164389 
 H417  H    -0.096111     -0.363613     -0.193279 
 H418  H    -0.067004     -0.301847     -0.074009 
 H419  H     0.009452     -0.259830     -0.135590 
 H420  H    -0.083746     -0.199988     -0.109499 
 H421  H    -0.325149     -0.059970      0.148602 
 H422  H    -0.242530     -0.136639      0.168197 
 H423  H    -0.348273     -0.167182      0.132697 
loop_  
_geom_bond_atom_site_label_1  
_geom_bond_atom_site_label_2  
Cu0   Cu1 
Cu0   O4 
Cu0   O7 
Cu0   O10 
Cu0   O13 
Cu0   N82 
Cu1   O2 
Cu1   O5 
Cu1   O8 
Cu1   O11 
Cu1   N276 
O2   C3 
C3   O4 
C3   C32 
O5   C6 
C6   O7 
C6   C85 
O8   C9 
C9   O10 
C9   C177 
O11   C12 
C12   O13 
C12   C124 
Cu14   Cu15 
Cu14   O18 
Cu14   O21 
Cu14   O24 
Cu14   O27 
Cu14   N174 
Cu15   O16 
Cu15   O19 
Cu15   O22 
Cu15   O25 
Cu15   N368 
O16   C17 
C17   O18 
C17   C121 
O19   C20 
C20   O21 
C20   C180 
O22   C23 
C23   O24 
C23   C88 
O25   C26 
C26   O27 
C26   C29 
C28   C29 
C28   C33 
C28   H45 
C29   C30 
C30   C31 
C30   O34 
C31   C32 
C31   H44 
C32   C33 
C33   O39 
O34   C35 
C35   C36 
C35   H48 
C35   H49 
C36   C37 
C36   H52 
C36   H53 
C37   C38 
C37   H54 
C37   H55 
C38   H61 
C38   H62 
C38   H63 
O39   C40 
C40   C41 
C40   H46 
C40   H47 
C41   C42 
C41   H50 
C41   H51 
C42   C43 
C42   H56 
C42   H57 
C43   H58 
C43   H59 
C43   H60 
N64   C65 
N64   C66 
N64   C67 
N64   Cu213 
C65   C71 
C65   H72 
C65   H73 
C66   C68 
C66   H69 
C66   H70 
C67   C74 
C67   H75 
C67   H76 
C68   H79 
C68   H80 
C68   N82 
C71   H77 
C71   H78 
C71   N82 
C74   H81 
C74   N82 
C74   H83 
C84   C85 
C84   C89 
C84   H101 
C85   C86 
C86   C87 
C86   O90 
C87   C88 
C87   H100 
C88   C89 
C89   O95 
O90   C91 
C91   C92 
C91   H104 
C91   H105 
C92   C93 
C92   H108 
C92   H109 
C93   C94 
C93   H110 
C93   H111 
C94   H117 
C94   H118 
C94   H119 
O95   C96 
C96   C97 
C96   H102 
C96   H103 
C97   C98 
C97   H106 
C97   H107 
C98   C99 
C98   H112 
C98   H113 
C99   H114 
C99   H115 
C99   H116 
C120   C121 
C120   C125 
C120   H137 
C121   C122 
C122   C123 
C122   O126 
C123   C124 
C123   H136 
C124   C125 
C125   O131 
O126   C127 
C127   C128 
C127   H140 
C127   H141 
C128   C129 
C128   H144 
C128   H145 
C129   C130 
C129   H146 
C129   H147 
C130   H153 
C130   H154 
C130   H155 
O131   C132 
C132   C133 
C132   H138 
C132   H139 
C133   C134 
C133   H142 
C133   H143 
C134   C135 
C134   H148 
C134   H149 
C135   H150 
C135   H151 
C135   H152 
N156   C157 
N156   C158 
N156   C159 
N156   Cu227 
C157   C163 
C157   H164 
C157   H165 
C158   C160 
C158   H161 
C158   H162 
C159   C166 
C159   H167 
C159   H168 
C160   H171 
C160   H172 
C160   N174 
C163   H169 
C163   H170 
C163   N174 
C166   H173 
C166   N174 
C166   H175 
C176   C177 
C176   C181 
C176   H193 
C177   C178 
C178   C179 
C178   O182 
C179   C180 
C179   H192 
C180   C181 
C181   O187 
O182   C183 
C183   C184 
C183   H196 
C183   H197 
C184   C185 
C184   H200 
C184   H201 
C185   C186 
C185   H202 
C185   H203 
C186   H209 
C186   H210 
C186   H211 
O187   C188 
C188   C189 
C188   H194 
C188   H195 
C189   C190 
C189   H198 
C189   H199 
C190   C191 
C190   H204 
C190   H205 
C191   H206 
C191   H207 
C191   H208 
Cu212   Cu213 
Cu212   O216 
Cu212   O219 
Cu212   O222 
Cu212   O225 
Cu212   N294 
Cu213   O214 
Cu213   O217 
Cu213   O220 
Cu213   O223 
O214   C215 
C215   O216 
C215   C244 
O217   C218 
C218   O219 
C218   C297 
O220   C221 
C221   O222 
C221   C392 
O223   C224 
C224   O225 
C224   C336 
Cu226   Cu227 
Cu226   O230 
Cu226   O233 
Cu226   O236 
Cu226   O239 
Cu226   N386 
Cu227   O228 
Cu227   O231 
Cu227   O234 
Cu227   O237 
O228   C229 
C229   O230 
C229   C333 
O231   C232 
C232   O233 
C232   C389 
O234   C235 
C235   O236 
C235   C300 
O237   C238 
C238   O239 
C238   C241 
C240   C241 
C240   C245 
C240   H257 
C241   C242 
C242   C243 
C242   O246 
C243   C244 
C243   H256 
C244   C245 
C245   O251 
O246   C247 
C247   C248 
C247   H260 
C247   H261 
C248   C249 
C248   H264 
C248   H265 
C249   C250 
C249   H266 
C249   H267 
C250   H273 
C250   H274 
C250   H275 
O251   C252 
C252   C253 
C252   H258 
C252   H259 
C253   C254 
C253   H262 
C253   H263 
C254   C255 
C254   H268 
C254   H269 
C255   H270 
C255   H271 
C255   H272 
N276   C277 
N276   C278 
N276   C279 
C277   C283 
C277   H284 
C277   H285 
C278   C280 
C278   H281 
C278   H282 
C279   C286 
C279   H287 
C279   H288 
C280   H291 
C280   H292 
C280   N294 
C283   H289 
C283   H290 
C283   N294 
C286   H293 
C286   N294 
C286   H295 
C296   C297 
C296   C301 
C296   H313 
C297   C298 
C298   C299 
C298   O302 
C299   C300 
C299   H312 
C300   C301 
C301   O307 
O302   C303 
C303   C304 
C303   H316 
C303   H317 
C304   C305 
C304   H320 
C304   H321 
C305   C306 
C305   H322 
C305   H323 
C306   H329 
C306   H330 
C306   H331 
O307   C308 
C308   C309 
C308   H314 
C308   H315 
C309   C310 
C309   H318 
C309   H319 
C310   C311 
C310   H324 
C310   H325 
C311   H326 
C311   H327 
C311   H328 
C332   C333 
C332   C337 
C332   H349 
C333   C334 
C334   C335 
C334   O338 
C335   C336 
C335   H348 
C336   C337 
C337   O343 
O338   C339 
C339   C340 
C339   H352 
C339   H353 
C340   C341 
C340   H356 
C340   H357 
C341   C342 
C341   H358 
C341   H359 
C342   H365 
C342   H366 
C342   H367 
O343   C344 
C344   C345 
C344   H350 
C344   H351 
C345   C346 
C345   H354 
C345   H355 
C346   C347 
C346   H360 
C346   H361 
C347   H362 
C347   H363 
C347   H364 
N368   C369 
N368   C370 
N368   C371 
C369   C375 
C369   H376 
C369   H377 
C370   C372 
C370   H373 
C370   H374 
C371   C378 
C371   H379 
C371   H380 
C372   H383 
C372   H384 
C372   N386 
C375   H381 
C375   H382 
C375   N386 
C378   H385 
C378   N386 
C378   H387 
C388   C389 
C388   C393 
C388   H405 
C389   C390 
C390   C391 
C390   O394 
C391   C392 
C391   H404 
C392   C393 
C393   O399 
O394   C395 
C395   C396 
C395   H408 
C395   H409 
C396   C397 
C396   H412 
C396   H413 
C397   C398 
C397   H414 
C397   H415 
C398   H421 
C398   H422 
C398   H423 
O399   C400 
C400   C401 
C400   H406 
C400   H407 
C401   C402 
C401   H410 
C401   H411 
C402   C403 
C402   H416 
C402   H417 
C403   H418 
C403   H419 
C403   H420 
  
#END  
