data_
_symmetry_cell_setting           triclinic 
_symmetry_space_group_name_H-M   'P 1' 
_symmetry_Int_Tables_number      1 
loop_ 
_symmetry_equiv_pos_site_id 
_symmetry_equiv_pos_as_xyz 
1 x,y,z 
_cell_length_a             10.607645        
_cell_length_b             18.597895        
_cell_length_c             19.158321        
_cell_angle_alpha          92.500374        
_cell_angle_beta           96.720069        
_cell_angle_gamma          89.571736        
loop_  
_atom_site_label   
_atom_site_type_symbol  
_atom_site_fract_x  
_atom_site_fract_y  
_atom_site_fract_z 
 Cu0  Cu     0.000125      0.000738      0.061587 
 Cu1  Cu    -0.009849     -0.014437     -0.075557 
 O2  O    -0.136815      0.064350     -0.085583 
 C3  C    -0.164661      0.093934     -0.027143 
 O4  O    -0.147702      0.062388      0.030308 
 O5  O     0.107481      0.070350     -0.063767 
 C6  C     0.138659      0.106473     -0.006468 
 O7  O     0.119164      0.082409      0.053375 
 O8  O    -0.118016     -0.098755     -0.067608 
 C9  C    -0.142744     -0.117134     -0.005211 
 O10  O    -0.135394     -0.077205      0.050269 
 O11  O     0.129403     -0.084922     -0.055940 
 C12  C     0.158232     -0.108919      0.005489 
 O13  O     0.121086     -0.083899      0.063083 
 Cu14  Cu    -0.462674      0.492718      0.064769 
 Cu15  Cu    -0.466284      0.498309     -0.069302 
 O16  O     0.415868     -0.419030     -0.059270 
 C17  C     0.387665     -0.393052      0.002285 
 O18  O     0.402862     -0.425658      0.058050 
 O19  O    -0.323658     -0.434558     -0.054482 
 C20  C    -0.295374     -0.407142      0.007582 
 O21  O    -0.313917     -0.435729      0.064300 
 O22  O     0.399092      0.419170     -0.061405 
 C23  C     0.373253      0.392632     -0.003136 
 O24  O     0.401776      0.421837      0.056645 
 O25  O    -0.333654      0.419044     -0.055966 
 C26  C    -0.309794      0.389775      0.001684 
 O27  O    -0.330179      0.417951      0.061538 
 C28  C    -0.199887      0.292936     -0.058360 
 C29  C    -0.277132      0.311913     -0.003935 
 C30  C    -0.325299      0.258942      0.036150 
 C31  C    -0.305523      0.185304      0.020963 
 C32  C    -0.223538      0.169324     -0.028148 
 C33  C    -0.176248      0.219764     -0.070675 
 O34  O    -0.401048      0.280665      0.086621 
 C35  C    -0.468085      0.227897      0.127661 
 C36  C    -0.370403      0.196698      0.182337 
 C37  C    -0.296944      0.254193      0.230560 
 C38  C    -0.215780      0.230580      0.295256 
 O39  O    -0.109203      0.198845     -0.124575 
 C40  C    -0.078515      0.253396     -0.171748 
 C41  C    -0.196160      0.280957     -0.217563 
 C42  C    -0.245354      0.228360     -0.275367 
 C43  C    -0.352929      0.246799     -0.330051 
 H44  H    -0.332669      0.145330      0.056993 
 H45  H    -0.154200      0.338925     -0.081191 
 H46  H    -0.040057      0.301168     -0.139279 
 H47  H    -0.000810      0.233365     -0.199466 
 H48  H     0.450858      0.251912      0.150303 
 H49  H     0.487474      0.177865      0.095271 
 H50  H    -0.284224      0.291720     -0.189460 
 H51  H    -0.170153      0.330249     -0.239878 
 H52  H    -0.418122      0.160154      0.214140 
 H53  H    -0.302605      0.161243      0.158454 
 H54  H    -0.247430      0.298161      0.199914 
 H55  H    -0.365494      0.285672      0.256124 
 H56  H    -0.165870      0.208800     -0.299445 
 H57  H    -0.263246      0.175043     -0.247953 
 H58  H    -0.357104      0.208654     -0.372184 
 H59  H    -0.442173      0.250577     -0.308104 
 H60  H    -0.337566      0.300035     -0.352346 
 H61  H    -0.267976      0.191132      0.317737 
 H62  H    -0.127703      0.207388      0.281225 
 H63  H    -0.194828      0.273912      0.334841 
 N64  N    -0.053352     -0.012228      0.306407 
 C65  C     0.017339      0.047036      0.286203 
 C66  C     0.022833     -0.075177      0.285432 
 C67  C    -0.174122     -0.016257      0.263302 
 C68  C     0.043485     -0.075328      0.205606 
 H69  H     0.113642     -0.083307      0.313376 
 H70  H    -0.019131     -0.127889      0.293679 
 C71  C     0.006567      0.053030      0.206565 
 H72  H    -0.012352      0.099675      0.305436 
 H73  H     0.115960      0.039224      0.306250 
 C74  C    -0.163038     -0.033819      0.183437 
 H75  H    -0.234037     -0.050935      0.289933 
 H76  H    -0.221393      0.039389      0.272243 
 H77  H    -0.068787      0.091920      0.186844 
 H78  H     0.106826      0.068824      0.191577 
 H79  H     0.144813     -0.068561      0.195616 
 H80  H     0.017399     -0.128566      0.182229 
 H81  H    -0.230442     -0.008157      0.143578 
 N82  N    -0.034175     -0.017001      0.169927 
 H83  H    -0.182359     -0.096743      0.172122 
 C84  C     0.265629      0.294876      0.051487 
 C85  C     0.310897      0.319309     -0.008355 
 C86  C     0.292018      0.274094     -0.067939 
 C87  C     0.223503      0.209853     -0.068518 
 C88  C     0.182526      0.183164     -0.009499 
 C89  C     0.192638      0.230633      0.051823 
 O90  O     0.340123      0.291894     -0.127090 
 C91  C     0.467463      0.269462     -0.135654 
 C92  C     0.493648      0.188191     -0.138406 
 C93  C     0.405764      0.150296     -0.199566 
 C94  C     0.476579      0.084332     -0.227858 
 O95  O     0.156721      0.215969      0.115304 
 C96  C     0.028977      0.238719      0.120440 
 C97  C     0.027446      0.314083      0.154174 
 C98  C     0.097688      0.329728      0.228878 
 C99  C     0.102920      0.410690      0.253881 
 H100  H     0.212961      0.182689     -0.117957 
 H101  H     0.271737      0.328843      0.100875 
 H102  H    -0.024099      0.224377      0.069832 
 H103  H     0.000086      0.203384      0.156464 
 H104  H     0.485955      0.293890     -0.183453 
 H105  H    -0.472714      0.295098     -0.092170 
 H106  H     0.064911      0.344784      0.115806 
 H107  H    -0.075171      0.331253      0.150634 
 H108  H    -0.404939      0.182327     -0.143156 
 H109  H     0.474602      0.168512     -0.088832 
 H110  H     0.314564      0.130204     -0.183437 
 H111  H     0.368716      0.187052     -0.240404 
 H112  H     0.041797      0.302242      0.263409 
 H113  H     0.196284      0.306687      0.234307 
 H114  H     0.146909      0.451563      0.227700 
 H115  H     0.007217      0.423517      0.263337 
 H116  H     0.144290      0.412197      0.308991 
 H117  H    -0.435446      0.098898     -0.249253 
 H118  H    -0.487848      0.053091     -0.184278 
 H119  H     0.416601      0.055418     -0.269269 
 C120  C     0.187009     -0.231750      0.048058 
 C121  C     0.226633     -0.178438      0.005284 
 C122  C     0.322207     -0.195967     -0.038452 
 C123  C     0.368822     -0.265560     -0.041554 
 C124  C     0.324410     -0.318589      0.002664 
 C125  C     0.233195     -0.302584      0.047543 
 O126  O     0.362531     -0.139730     -0.070238 
 C127  C     0.489094     -0.142770     -0.088484 
 C128  C    -0.467308     -0.071739     -0.113516 
 C129  C    -0.458790     -0.007737     -0.054461 
 C130  C     0.407794      0.021090     -0.038212 
 O131  O     0.196897     -0.357568      0.088002 
 C132  C     0.080496     -0.351067      0.123175 
 C133  C     0.042416     -0.429174      0.145864 
 C134  C    -0.002802     -0.483464      0.083604 
 C135  C     0.109812      0.479512      0.057590 
 H136  H     0.452839     -0.276935     -0.070059 
 H137  H     0.108970     -0.218837      0.079633 
 H138  H     0.105869     -0.316798      0.169832 
 H139  H     0.006404     -0.328291      0.090059 
 H140  H    -0.439376     -0.161981     -0.048282 
 H141  H     0.492637     -0.181629     -0.134360 
 H142  H     0.129106     -0.452089      0.174845 
 H143  H    -0.036381     -0.425688      0.179317 
 H144  H    -0.369847     -0.082398     -0.129438 
 H145  H     0.470816     -0.056542     -0.157701 
 H146  H    -0.401141     -0.026220     -0.004460 
 H147  H    -0.406336      0.038204     -0.065475 
 H148  H    -0.048943      0.472640      0.109629 
 H149  H    -0.076714     -0.467917      0.038663 
 H150  H     0.169870      0.449090      0.097387 
 H151  H     0.081875      0.434302      0.020182 
 H152  H     0.183008     -0.488746      0.032555 
 H153  H     0.338088      0.031050     -0.080420 
 H154  H     0.361526     -0.011702      0.001802 
 H155  H     0.426168      0.075264     -0.013323 
 N156  N    -0.466173     -0.499413      0.315688 
 C157  C     0.461796     -0.432509      0.288183 
 C158  C    -0.333048     -0.496354      0.297965 
 C159  C     0.469615      0.437164      0.272146 
 C160  C    -0.328239     -0.498923      0.215800 
 H161  H    -0.300274     -0.445412      0.319132 
 H162  H    -0.268042      0.463026      0.321489 
 C163  C     0.476197     -0.425155      0.210130 
 H164  H     0.360595     -0.433805      0.300631 
 H165  H     0.499753     -0.385759      0.320828 
 C166  C     0.473200      0.444302      0.193704 
 H167  H    -0.480655      0.383975      0.286343 
 H168  H     0.372800      0.429571      0.289782 
 H169  H     0.392523     -0.412317      0.171607 
 H170  H    -0.458715     -0.383005      0.197276 
 H171  H    -0.272131     -0.456644      0.196745 
 H172  H    -0.296992      0.449297      0.199766 
 H173  H     0.377138      0.452417      0.167408 
 N174  N    -0.459021     -0.490816      0.180735 
 H175  H    -0.483343      0.396759      0.174237 
 C176  C    -0.292016     -0.285293      0.056736 
 C177  C    -0.232750     -0.336579      0.015905 
 C178  C    -0.148518     -0.319581     -0.030846 
 C179  C    -0.122193     -0.245475     -0.037953 
 C180  C    -0.182015     -0.192562     -0.000040 
 C181  C    -0.271752     -0.211775      0.048246 
 O182  O    -0.093441     -0.373988     -0.066408 
 C183  C     0.011872     -0.360057     -0.102323 
 C184  C     0.095101     -0.427448     -0.115332 
 C185  C     0.018134     -0.490072     -0.152178 
 C186  C    -0.027359     -0.482581     -0.231025 
 O187  O    -0.337816     -0.157103      0.079579 
 C188  C    -0.442150     -0.170182      0.118344 
 C189  C     0.453459     -0.111137      0.118571 
 C190  C     0.490355     -0.037671      0.153554 
 C191  C     0.366395      0.007701      0.157451 
 H192  H    -0.045795     -0.229045     -0.068765 
 H193  H    -0.350778     -0.304319      0.095393 
 H194  H    -0.492878     -0.224526      0.106196 
 H195  H    -0.401017     -0.170643      0.174431 
 H196  H    -0.039497     -0.337170     -0.151100 
 H197  H     0.074185     -0.313672     -0.077729 
 H198  H     0.408388     -0.101023      0.066029 
 H199  H     0.381450     -0.134489      0.149607 
 H200  H     0.171997     -0.412504     -0.142819 
 H201  H     0.139381     -0.444570     -0.065046 
 H202  H     0.073721      0.460647     -0.141999 
 H203  H    -0.059856      0.499892     -0.121019 
 H204  H    -0.446948     -0.038476      0.207722 
 H205  H    -0.460629     -0.005715      0.114996 
 H206  H     0.313167      0.006420      0.105107 
 H207  H     0.309006     -0.006960      0.196129 
 H208  H     0.400945      0.064583      0.166293 
 H209  H    -0.079839     -0.430174     -0.234528 
 H210  H     0.047778     -0.477721     -0.266571 
 H211  H    -0.100621      0.478921     -0.248695 
 Cu212  Cu    -0.009805      0.007724     -0.441892 
 Cu213  Cu    -0.017711     -0.005855      0.421687 
 O214  O    -0.170622      0.064920      0.434612 
 C215  C    -0.180019      0.098391      0.492178 
 O216  O    -0.145349      0.077861     -0.447926 
 O217  O     0.073730      0.091101      0.434795 
 C218  C     0.112186      0.122171      0.492104 
 O219  O     0.107777      0.091770     -0.448884 
 O220  O    -0.118420     -0.098662      0.435289 
 C221  C    -0.147114     -0.116615      0.496726 
 O222  O    -0.129612     -0.077975     -0.449568 
 O223  O     0.144018     -0.067235      0.435480 
 C224  C     0.171528     -0.095686      0.494911 
 O225  O     0.132366     -0.065014     -0.448042 
 Cu226  Cu    -0.495372     -0.496057     -0.426042 
 Cu227  Cu    -0.498257     -0.492387      0.437190 
 O228  O     0.395572     -0.408825      0.449905 
 C229  C     0.377132     -0.378836     -0.490122 
 O230  O     0.402963     -0.406827     -0.432076 
 O231  O    -0.344678     -0.430000      0.447233 
 C232  C    -0.320482     -0.405158     -0.491013 
 O233  O    -0.334657     -0.438904     -0.434838 
 O234  O     0.354132      0.433409      0.439817 
 C235  C     0.333598      0.402886      0.495921 
 O236  O     0.363743      0.430461     -0.444817 
 O237  O    -0.401726      0.418313      0.431211 
 C238  C    -0.385077      0.386423      0.488532 
 O239  O    -0.398261      0.413437     -0.451635 
 C240  C    -0.338429      0.187469      0.445163 
 C241  C    -0.235612      0.173156      0.493170 
 C242  C    -0.181185      0.226950     -0.462441 
 C243  C    -0.219623      0.299204     -0.469169 
 C244  C    -0.327256      0.314113      0.482191 
 C245  C    -0.388979      0.255915      0.440956 
 O246  O    -0.077770      0.212228     -0.411728 
 C247  C    -0.001810      0.271061     -0.377292 
 C248  C     0.112217      0.250644     -0.329509 
 C249  C     0.195823      0.315292     -0.303117 
 C250  C     0.135814      0.367973     -0.252993 
 O251  O    -0.490848      0.278272      0.394035 
 C252  C     0.413354      0.222486      0.379494 
 C253  C     0.423952      0.175943      0.314195 
 C254  C     0.321520      0.117171      0.308666 
 C255  C     0.366056      0.047134      0.350489 
 H256  H    -0.167016      0.335972     -0.435259 
 H257  H    -0.382036      0.142559      0.414284 
 H258  H     0.421503      0.187310      0.425339 
 H259  H     0.322106      0.252918      0.375748 
 H260  H     0.028947      0.309364     -0.412659 
 H261  H    -0.057597      0.303327     -0.341361 
 H262  H     0.403476      0.207719      0.268305 
 H263  H    -0.475058      0.151040      0.319494 
 H264  H     0.083530      0.224988     -0.281232 
 H265  H     0.159566      0.205035     -0.355965 
 H266  H     0.286549      0.290134     -0.275456 
 H267  H     0.236212      0.346714     -0.343981 
 H268  H     0.231524      0.137861      0.321459 
 H269  H     0.306689      0.102974      0.251919 
 H270  H     0.435996      0.016950      0.322491 
 H271  H     0.417585      0.055690      0.403850 
 H272  H     0.295990      0.005025      0.357639 
 H273  H     0.195847      0.415541     -0.232882 
 H274  H     0.041332      0.384758     -0.273957 
 H275  H     0.117684      0.341908     -0.203617 
 N276  N    -0.022126     -0.001515     -0.189087 
 C277  C     0.042493     -0.065852     -0.221918 
 C278  C    -0.147361      0.003961     -0.230709 
 C279  C     0.052960      0.062676     -0.203222 
 C280  C    -0.140008      0.008400     -0.311029 
 H281  H    -0.204428     -0.046246     -0.222134 
 H282  H    -0.199915      0.053364     -0.209545 
 C283  C     0.058264     -0.056392     -0.301717 
 H284  H     0.134096     -0.078666     -0.193243 
 H285  H    -0.020428     -0.110489     -0.210713 
 C286  C     0.056586      0.070550     -0.285693 
 H287  H     0.015323      0.111734     -0.177687 
 H288  H     0.151858      0.055355     -0.181969 
 H289  H     0.158777     -0.048618     -0.309335 
 H290  H     0.015735     -0.097183     -0.336280 
 H291  H    -0.186338     -0.042886     -0.340946 
 H292  H    -0.185768      0.058104     -0.329609 
 H293  H     0.153484      0.069369     -0.297540 
 N294  N    -0.004117      0.010395     -0.324243 
 H295  H     0.012180      0.118888     -0.303921 
 C296  C     0.095197      0.247276      0.453025 
 C297  C     0.165998      0.196033      0.494456 
 C298  C     0.279442      0.214605     -0.463182 
 C299  C     0.332642      0.280764     -0.463861 
 C300  C     0.270042      0.333433      0.492522 
 C301  C     0.149696      0.317077      0.450001 
 O302  O     0.356009      0.172803     -0.419145 
 C303  C     0.361677      0.098050     -0.439320 
 C304  C     0.497577      0.076758     -0.436237 
 C305  C    -0.472476     -0.002081     -0.454066 
 C306  C    -0.477904     -0.059094     -0.399912 
 O307  O     0.080992      0.367114      0.413466 
 C308  C    -0.047417      0.382374      0.419040 
 C309  C    -0.056059      0.443318      0.473066 
 C310  C    -0.041197     -0.481000      0.446691 
 C311  C     0.088575     -0.465556      0.424787 
 H312  H     0.410339      0.294164     -0.419861 
 H313  H     0.009584      0.240133      0.422890 
 H314  H    -0.098664      0.397232      0.370042 
 H315  H    -0.088777      0.330176      0.428542 
 H316  H     0.308959      0.068828     -0.398582 
 H317  H     0.317527      0.081858     -0.489711 
 H318  H    -0.149184      0.437363      0.494351 
 H319  H     0.020833      0.443027     -0.482035 
 H320  H    -0.460392      0.108141     -0.475105 
 H321  H    -0.452906      0.096715     -0.382563 
 H322  H     0.466261     -0.017939     -0.499515 
 H323  H    -0.373224     -0.003110     -0.464739 
 H324  H    -0.116991     -0.472130      0.404922 
 H325  H    -0.056110     -0.442645      0.493701 
 H326  H     0.159400     -0.480443      0.470017 
 H327  H     0.116879     -0.493794      0.378140 
 H328  H     0.102796     -0.406036      0.416176 
 H329  H     0.432660     -0.058640     -0.379254 
 H330  H    -0.451211     -0.111550     -0.426973 
 H331  H    -0.406102     -0.043711     -0.352214 
 C332  C     0.157602     -0.217286     -0.464471 
 C333  C     0.229039     -0.167339     -0.499057 
 C334  C     0.334063     -0.180924      0.466099 
 C335  C     0.384185     -0.251719      0.473310 
 C336  C     0.322739     -0.303405     -0.489870 
 C337  C     0.209340     -0.288641     -0.460726 
 O338  O     0.380273     -0.124641      0.432058 
 C339  C     0.488338     -0.136178      0.391317 
 C340  C     0.434976     -0.146419      0.313491 
 C341  C     0.375290     -0.221841      0.294865 
 C342  C     0.324481     -0.240389      0.218884 
 O343  O     0.170727     -0.343621     -0.429319 
 C344  C     0.057925     -0.343964     -0.396819 
 C345  C     0.069480     -0.300555     -0.328210 
 C346  C     0.195311     -0.313554     -0.282127 
 C347  C     0.211160     -0.255711     -0.225916 
 H348  H     0.465164     -0.268886      0.446739 
 H349  H     0.065296     -0.208826     -0.442708 
 H350  H    -0.011659     -0.330833     -0.437226 
 H351  H     0.049042     -0.401669     -0.388229 
 H352  H    -0.449999     -0.089752      0.394992 
 H353  H    -0.457076     -0.182378      0.416350 
 H354  H     0.068759     -0.246365     -0.342871 
 H355  H    -0.008232     -0.306788     -0.298682 
 H356  H     0.362461     -0.108053      0.292505 
 H357  H    -0.483979     -0.137857      0.281775 
 H358  H     0.449131     -0.261707      0.314020 
 H359  H     0.298258     -0.224153      0.328322 
 H360  H     0.201169     -0.366097     -0.256544 
 H361  H     0.273146     -0.308684     -0.312549 
 H362  H     0.144834     -0.259902     -0.182258 
 H363  H     0.307720     -0.251873     -0.196404 
 H364  H     0.188650     -0.205400     -0.252830 
 H365  H     0.276984     -0.292278      0.214121 
 H366  H     0.260880     -0.200106      0.193790 
 H367  H     0.406356     -0.243933      0.190282 
 N368  N    -0.495945      0.496743     -0.181543 
 C369  C     0.379747     -0.469964     -0.202454 
 C370  C    -0.393734     -0.455277     -0.200460 
 C371  C    -0.492691      0.426292     -0.215721 
 C372  C    -0.408034     -0.445770     -0.281332 
 H373  H    -0.381196     -0.403900     -0.171264 
 H374  H    -0.303591     -0.481476     -0.187493 
 C375  C     0.366986     -0.462145     -0.285446 
 H376  H     0.302159      0.495557     -0.184268 
 H377  H     0.383190     -0.414991     -0.180012 
 C378  C    -0.483036      0.431601     -0.294642 
 H379  H    -0.407447      0.396211     -0.197598 
 H380  H     0.423273      0.398162     -0.206599 
 H381  H     0.279975     -0.495412     -0.315027 
 H382  H     0.363916     -0.408936     -0.304027 
 H383  H    -0.437400     -0.391578     -0.296578 
 H384  H    -0.318219     -0.468508     -0.301123 
 H385  H     0.450512      0.395595     -0.329546 
 N386  N     0.490147     -0.491483     -0.312060 
 H387  H    -0.386362      0.413211     -0.302448 
 C388  C    -0.207007     -0.315289      0.460426 
 C389  C    -0.262690     -0.331394     -0.482074 
 C390  C    -0.292203     -0.281842     -0.430750 
 C391  C    -0.256141     -0.209503     -0.440262 
 C392  C    -0.198426     -0.192390     -0.498045 
 C393  C    -0.172614     -0.245504      0.448487 
 O394  O    -0.341602     -0.303001     -0.372278 
 C395  C    -0.429237     -0.255189     -0.337995 
 C396  C    -0.418745     -0.259611     -0.257696 
 C397  C    -0.289898     -0.265103     -0.217831 
 C398  C    -0.215784     -0.194261     -0.212970 
 O399  O    -0.136824     -0.221917      0.387264 
 C400  C    -0.031375     -0.261294      0.361632 
 C401  C    -0.064502     -0.328625      0.314527 
 C402  C    -0.143513     -0.316952      0.242108 
 C403  C    -0.270838     -0.278701      0.251476 
 H404  H    -0.255370     -0.172763     -0.393647 
 H405  H    -0.180214     -0.352238      0.418370 
 H406  H     0.028224     -0.226377      0.336313 
 H407  H     0.032617     -0.269312      0.409215 
 H408  H    -0.413527     -0.201027     -0.353287 
 H409  H     0.477376     -0.274807     -0.367844 
 H410  H     0.029817     -0.357044      0.313896 
 H411  H    -0.114925     -0.370257      0.339378 
 H412  H    -0.459441     -0.208917     -0.233671 
 H413  H    -0.473922     -0.307907     -0.242409 
 H414  H    -0.306020     -0.281759     -0.166376 
 H415  H    -0.227147     -0.308485     -0.239168 
 H416  H    -0.079683     -0.284423      0.208342 
 H417  H    -0.178843     -0.364518      0.211712 
 H418  H    -0.327051     -0.303235      0.285928 
 H419  H    -0.272525     -0.221562      0.266887 
 H420  H    -0.339036     -0.279471      0.202859 
 H421  H    -0.272264     -0.150449     -0.189907 
 H422  H    -0.121170     -0.197763     -0.183221 
 H423  H    -0.188487     -0.181809     -0.266844 
loop_  
_geom_bond_atom_site_label_1  
_geom_bond_atom_site_label_2  
Cu0   Cu1 
Cu0   O4 
Cu0   O7 
Cu0   O10 
Cu0   O13 
Cu0   N82 
Cu1   O2 
Cu1   O5 
Cu1   O8 
Cu1   O11 
Cu1   N276 
O2   C3 
C3   O4 
C3   C32 
O5   C6 
C6   O7 
C6   C88 
O8   C9 
C9   O10 
C9   C180 
O11   C12 
C12   O13 
C12   C121 
Cu14   Cu15 
Cu14   O18 
Cu14   O21 
Cu14   O24 
Cu14   O27 
Cu14   N174 
Cu15   O16 
Cu15   O19 
Cu15   O22 
Cu15   O25 
Cu15   N368 
O16   C17 
C17   O18 
C17   C124 
O19   C20 
C20   O21 
C20   C177 
O22   C23 
C23   O24 
C23   C85 
O25   C26 
C26   O27 
C26   C29 
C28   C29 
C28   C33 
C28   H45 
C29   C30 
C30   C31 
C30   O34 
C31   C32 
C31   H44 
C32   C33 
C33   O39 
O34   C35 
C35   C36 
C35   H48 
C35   H49 
C36   C37 
C36   H52 
C36   H53 
C37   C38 
C37   H54 
C37   H55 
C38   H61 
C38   H62 
C38   H63 
O39   C40 
C40   C41 
C40   H46 
C40   H47 
C41   C42 
C41   H50 
C41   H51 
C42   C43 
C42   H56 
C42   H57 
C43   H58 
C43   H59 
C43   H60 
N64   C65 
N64   C66 
N64   C67 
N64   Cu213 
C65   C71 
C65   H72 
C65   H73 
C66   C68 
C66   H69 
C66   H70 
C67   C74 
C67   H75 
C67   H76 
C68   H79 
C68   H80 
C68   N82 
C71   H77 
C71   H78 
C71   N82 
C74   H81 
C74   N82 
C74   H83 
C84   C85 
C84   C89 
C84   H101 
C85   C86 
C86   C87 
C86   O90 
C87   C88 
C87   H100 
C88   C89 
C89   O95 
O90   C91 
C91   C92 
C91   H104 
C91   H105 
C92   C93 
C92   H108 
C92   H109 
C93   C94 
C93   H110 
C93   H111 
C94   H117 
C94   H118 
C94   H119 
O95   C96 
C96   C97 
C96   H102 
C96   H103 
C97   C98 
C97   H106 
C97   H107 
C98   C99 
C98   H112 
C98   H113 
C99   H114 
C99   H115 
C99   H116 
C120   C121 
C120   C125 
C120   H137 
C121   C122 
C122   C123 
C122   O126 
C123   C124 
C123   H136 
C124   C125 
C125   O131 
O126   C127 
C127   C128 
C127   H140 
C127   H141 
C128   C129 
C128   H144 
C128   H145 
C129   C130 
C129   H146 
C129   H147 
C130   H153 
C130   H154 
C130   H155 
O131   C132 
C132   C133 
C132   H138 
C132   H139 
C133   C134 
C133   H142 
C133   H143 
C134   C135 
C134   H148 
C134   H149 
C135   H150 
C135   H151 
C135   H152 
N156   C157 
N156   C158 
N156   C159 
N156   Cu227 
C157   C163 
C157   H164 
C157   H165 
C158   C160 
C158   H161 
C158   H162 
C159   C166 
C159   H167 
C159   H168 
C160   H171 
C160   H172 
C160   N174 
C163   H169 
C163   H170 
C163   N174 
C166   H173 
C166   N174 
C166   H175 
C176   C177 
C176   C181 
C176   H193 
C177   C178 
C178   C179 
C178   O182 
C179   C180 
C179   H192 
C180   C181 
C181   O187 
O182   C183 
C183   C184 
C183   H196 
C183   H197 
C184   C185 
C184   H200 
C184   H201 
C185   C186 
C185   H202 
C185   H203 
C186   H209 
C186   H210 
C186   H211 
O187   C188 
C188   C189 
C188   H194 
C188   H195 
C189   C190 
C189   H198 
C189   H199 
C190   C191 
C190   H204 
C190   H205 
C191   H206 
C191   H207 
C191   H208 
Cu212   Cu213 
Cu212   O216 
Cu212   O219 
Cu212   O222 
Cu212   O225 
Cu212   N294 
Cu213   O214 
Cu213   O217 
Cu213   O220 
Cu213   O223 
O214   C215 
C215   O216 
C215   C241 
O217   C218 
C218   O219 
C218   C297 
O220   C221 
C221   O222 
C221   C392 
O223   C224 
C224   O225 
C224   C333 
Cu226   Cu227 
Cu226   O230 
Cu226   O233 
Cu226   O236 
Cu226   O239 
Cu226   N386 
Cu227   O228 
Cu227   O231 
Cu227   O234 
Cu227   O237 
O228   C229 
C229   O230 
C229   C336 
O231   C232 
C232   O233 
C232   C389 
O234   C235 
C235   O236 
C235   C300 
O237   C238 
C238   O239 
C238   C244 
C240   C241 
C240   C245 
C240   H257 
C241   C242 
C242   C243 
C242   O246 
C243   C244 
C243   H256 
C244   C245 
C245   O251 
O246   C247 
C247   C248 
C247   H260 
C247   H261 
C248   C249 
C248   H264 
C248   H265 
C249   C250 
C249   H266 
C249   H267 
C250   H273 
C250   H274 
C250   H275 
O251   C252 
C252   C253 
C252   H258 
C252   H259 
C253   C254 
C253   H262 
C253   H263 
C254   C255 
C254   H268 
C254   H269 
C255   H270 
C255   H271 
C255   H272 
N276   C277 
N276   C278 
N276   C279 
C277   C283 
C277   H284 
C277   H285 
C278   C280 
C278   H281 
C278   H282 
C279   C286 
C279   H287 
C279   H288 
C280   H291 
C280   H292 
C280   N294 
C283   H289 
C283   H290 
C283   N294 
C286   H293 
C286   N294 
C286   H295 
C296   C297 
C296   C301 
C296   H313 
C297   C298 
C298   C299 
C298   O302 
C299   C300 
C299   H312 
C300   C301 
C301   O307 
O302   C303 
C303   C304 
C303   H316 
C303   H317 
C304   C305 
C304   H320 
C304   H321 
C305   C306 
C305   H322 
C305   H323 
C306   H329 
C306   H330 
C306   H331 
O307   C308 
C308   C309 
C308   H314 
C308   H315 
C309   C310 
C309   H318 
C309   H319 
C310   C311 
C310   H324 
C310   H325 
C311   H326 
C311   H327 
C311   H328 
C332   C333 
C332   C337 
C332   H349 
C333   C334 
C334   C335 
C334   O338 
C335   C336 
C335   H348 
C336   C337 
C337   O343 
O338   C339 
C339   C340 
C339   H352 
C339   H353 
C340   C341 
C340   H356 
C340   H357 
C341   C342 
C341   H358 
C341   H359 
C342   H365 
C342   H366 
C342   H367 
O343   C344 
C344   C345 
C344   H350 
C344   H351 
C345   C346 
C345   H354 
C345   H355 
C346   C347 
C346   H360 
C346   H361 
C347   H362 
C347   H363 
C347   H364 
N368   C369 
N368   C370 
N368   C371 
C369   C375 
C369   H376 
C369   H377 
C370   C372 
C370   H373 
C370   H374 
C371   C378 
C371   H379 
C371   H380 
C372   H383 
C372   H384 
C372   N386 
C375   H381 
C375   H382 
C375   N386 
C378   H385 
C378   N386 
C378   H387 
C388   C389 
C388   C393 
C388   H405 
C389   C390 
C390   C391 
C390   O394 
C391   C392 
C391   H404 
C392   C393 
C393   O399 
O394   C395 
C395   C396 
C395   H408 
C395   H409 
C396   C397 
C396   H412 
C396   H413 
C397   C398 
C397   H414 
C397   H415 
C398   H421 
C398   H422 
C398   H423 
O399   C400 
C400   C401 
C400   H406 
C400   H407 
C401   C402 
C401   H410 
C401   H411 
C402   C403 
C402   H416 
C402   H417 
C403   H418 
C403   H419 
C403   H420 
  
#END  
