data_
_symmetry_cell_setting           triclinic 
_symmetry_space_group_name_H-M   'P 1' 
_symmetry_Int_Tables_number      1 
loop_ 
_symmetry_equiv_pos_site_id 
_symmetry_equiv_pos_as_xyz 
1 x,y,z 
_cell_length_a             15.330697        
_cell_length_b             15.419339        
_cell_length_c             19.059968        
_cell_angle_alpha          88.507028        
_cell_angle_beta           88.300715        
_cell_angle_gamma          90.218748        
loop_  
_atom_site_label   
_atom_site_type_symbol  
_atom_site_fract_x  
_atom_site_fract_y  
_atom_site_fract_z 
 Cu0  Cu     0.000739     -0.005432      0.065411 
 Cu1  Cu     0.002689     -0.002180     -0.071042 
 O2  O    -0.088014      0.087434     -0.061581 
 C3  C    -0.104021      0.124161     -0.003651 
 O4  O    -0.068099      0.104739      0.054215 
 O5  O     0.094191      0.089663     -0.061974 
 C6  C     0.131035      0.099900     -0.003657 
 O7  O     0.110640      0.060875      0.054130 
 O8  O    -0.090168     -0.092518     -0.057257 
 C9  C    -0.126705     -0.110158      0.002507 
 O10  O    -0.107413     -0.075497      0.059985 
 O11  O     0.092602     -0.093135     -0.062305 
 C12  C     0.108243     -0.130940     -0.003840 
 O13  O     0.071115     -0.113492      0.054812 
 Cu14  Cu     0.499923      0.493024      0.071847 
 Cu15  Cu    -0.499165      0.495175     -0.064658 
 O16  O     0.408540     -0.415686     -0.055213 
 C17  C     0.372687     -0.399567      0.004134 
 O18  O     0.392693     -0.435599      0.062320 
 O19  O    -0.409857     -0.411988     -0.062106 
 C20  C    -0.394396     -0.376378     -0.004229 
 O21  O    -0.428362     -0.399221      0.055374 
 O22  O     0.410626      0.404346     -0.051020 
 C23  C     0.393046      0.367040      0.008065 
 O24  O     0.428706      0.383604      0.065864 
 O25  O    -0.407427      0.405368     -0.051987 
 C26  C    -0.370396      0.390401      0.006104 
 O27  O    -0.391245      0.424927      0.064147 
 C28  C    -0.286606      0.277975     -0.056701 
 C29  C    -0.297740      0.325274      0.004589 
 C30  C    -0.242988      0.310396      0.061512 
 C31  C    -0.180839      0.243949      0.058127 
 C32  C    -0.170815      0.195522     -0.002803 
 C33  C    -0.223747      0.212541     -0.060590 
 O34  O    -0.251801      0.357992      0.120912 
 C35  C    -0.175263      0.403009      0.142630 
 C36  C    -0.161051      0.485555      0.097746 
 C37  C    -0.072437     -0.470740      0.109117 
 C38  C    -0.060236     -0.383534      0.069466 
 O39  O    -0.211854      0.167430     -0.120989 
 C40  C    -0.286891      0.134751     -0.155370 
 C41  C    -0.329755      0.062852     -0.109907 
 C42  C    -0.401784      0.014120     -0.147257 
 C43  C    -0.447502     -0.055427     -0.100236 
 H44  H    -0.141379      0.230079      0.103756 
 H45  H    -0.326892      0.291524     -0.101875 
 H46  H    -0.333158      0.187041     -0.167502 
 H47  H    -0.263568      0.109319     -0.205974 
 H48  H    -0.185718      0.418695      0.198285 
 H49  H    -0.117654      0.360709      0.139400 
 H50  H    -0.279523      0.016224     -0.093339 
 H51  H    -0.357217      0.090324     -0.061270 
 H52  H    -0.165430      0.470534      0.041734 
 H53  H    -0.214341     -0.468580      0.108791 
 H54  H    -0.064210     -0.461148      0.165583 
 H55  H    -0.020201      0.484906      0.092299 
 H56  H    -0.450424      0.060918     -0.166095 
 H57  H    -0.373500     -0.016035     -0.194379 
 H58  H    -0.495318     -0.092450     -0.129287 
 H59  H    -0.400736     -0.101955     -0.078444 
 H60  H    -0.482438     -0.025964     -0.055845 
 H61  H     0.006629     -0.358559      0.073564 
 H62  H    -0.073983     -0.388632      0.013545 
 H63  H    -0.104333     -0.334203      0.090339 
 N64  N     0.004655      0.015370      0.314242 
 C65  C     0.040623     -0.067496      0.288984 
 C66  C    -0.084993      0.024319      0.288792 
 C67  C     0.057562      0.087576      0.282801 
 C68  C    -0.085315      0.020592      0.206952 
 H69  H    -0.125667     -0.027916      0.313015 
 H70  H    -0.112707      0.086057      0.306844 
 C71  C     0.042084     -0.069368      0.207204 
 H72  H     0.106904     -0.076094      0.308506 
 H73  H     0.000901     -0.121526      0.311673 
 C74  C     0.057049      0.085463      0.200900 
 H75  H     0.031467      0.149521      0.301889 
 H76  H     0.124770      0.082413      0.301368 
 H77  H     0.109567     -0.076134      0.186375 
 H78  H     0.005035     -0.125641      0.189279 
 H79  H    -0.125037     -0.034517      0.190409 
 H80  H    -0.114842      0.079740      0.184391 
 H81  H     0.124285      0.079892      0.179394 
 N82  N     0.004512      0.011270      0.177656 
 H83  H     0.030183      0.146065      0.178555 
 C84  C     0.343057      0.214857      0.035459 
 C85  C     0.324271      0.297877      0.008358 
 C86  C     0.244085      0.316435     -0.022270 
 C87  C     0.182796      0.249645     -0.028543 
 C88  C     0.201498      0.166891     -0.001712 
 C89  C     0.281529      0.147908      0.028997 
 O90  O     0.229273      0.400060     -0.044824 
 C91  C     0.141720      0.424833     -0.059816 
 C92  C     0.140344     -0.478332     -0.076739 
 C93  C     0.049194     -0.446419     -0.095810 
 C94  C     0.044219     -0.348079     -0.109136 
 O95  O     0.294032      0.063606      0.050974 
 C96  C     0.380529      0.032958      0.063197 
 C97  C     0.374909     -0.065008      0.075883 
 C98  C     0.461884     -0.106321      0.096494 
 C99  C     0.457536     -0.205262      0.105774 
 H100  H     0.119784      0.261681     -0.052267 
 H101  H     0.405778      0.202004      0.059236 
 H102  H     0.423099      0.049461      0.017183 
 H103  H     0.406882      0.065115      0.108923 
 H104  H     0.118812      0.388117     -0.104516 
 H105  H     0.098766      0.408972     -0.013845 
 H106  H     0.325106     -0.079869      0.117396 
 H107  H     0.351665     -0.095859      0.028379 
 H108  H     0.162703     -0.442723     -0.031240 
 H109  H     0.187278     -0.462479     -0.120122 
 H110  H     0.027647     -0.480359     -0.142310 
 H111  H     0.002812     -0.465939     -0.053183 
 H112  H    -0.487169     -0.089162      0.056589 
 H113  H     0.482771     -0.078248      0.145695 
 H114  H    -0.479518     -0.231796      0.121897 
 H115  H     0.407912     -0.225506      0.145726 
 H116  H     0.441426     -0.235964      0.056390 
 H117  H    -0.022060     -0.327871     -0.122377 
 H118  H     0.061763     -0.312763     -0.062242 
 H119  H     0.088727     -0.326517     -0.152429 
 C120  C     0.288257     -0.287306     -0.059991 
 C121  C     0.302852     -0.331231      0.003879 
 C122  C     0.253305     -0.310942      0.064502 
 C123  C     0.190696     -0.245073      0.060993 
 C124  C     0.176421     -0.200926     -0.002880 
 C125  C     0.225716     -0.221561     -0.063572 
 O126  O     0.270297     -0.350478      0.127650 
 C127  C     0.200756     -0.395147      0.165935 
 C128  C     0.188535     -0.485390      0.136574 
 C129  C     0.140545      0.450860      0.187872 
 C130  C     0.129222      0.359988      0.158328 
 O131  O     0.208768     -0.182662     -0.127017 
 C132  C     0.278656     -0.139652     -0.166162 
 C133  C     0.294372     -0.050326     -0.136267 
 C134  C     0.342391      0.012993     -0.187869 
 C135  C     0.355332      0.103383     -0.157912 
 H136  H     0.154555     -0.228129      0.108839 
 H137  H     0.324506     -0.303962     -0.107834 
 H138  H     0.338648     -0.178712     -0.165913 
 H139  H     0.258240     -0.133986     -0.220997 
 H140  H     0.219729     -0.399419      0.221191 
 H141  H     0.139700     -0.357840      0.164245 
 H142  H     0.231633     -0.021410     -0.120004 
 H143  H     0.331558     -0.057464     -0.087952 
 H144  H     0.152713     -0.479850      0.087477 
 H145  H     0.252537      0.487025      0.121946 
 H146  H     0.176951      0.445517      0.236749 
 H147  H     0.076253      0.477407      0.202665 
 H148  H     0.406098     -0.014316     -0.203394 
 H149  H     0.305372      0.019227     -0.236373 
 H150  H     0.389603      0.147074     -0.196063 
 H151  H     0.292382      0.133384     -0.144093 
 H152  H     0.393778      0.100345     -0.110159 
 H153  H     0.095679      0.316090      0.196739 
 H154  H     0.090707      0.361819      0.110611 
 H155  H     0.192695      0.330911      0.144687 
 N156  N    -0.493293     -0.499797      0.322225 
 C157  C    -0.483155      0.410265      0.298168 
 C158  C     0.423842     -0.465071      0.295522 
 C159  C    -0.420557     -0.447292      0.290702 
 C160  C     0.423329     -0.468334      0.213799 
 H161  H     0.368791      0.497139      0.319330 
 H162  H     0.415759     -0.397653      0.312450 
 C163  C    -0.483803      0.407219      0.216385 
 H164  H    -0.421328      0.384056      0.317535 
 H165  H     0.463785      0.369769      0.321817 
 C166  C    -0.421425     -0.449750      0.208774 
 H167  H    -0.426489     -0.379994      0.308467 
 H168  H    -0.358382     -0.472470      0.310466 
 H169  H    -0.422741      0.378834      0.195526 
 H170  H     0.462484      0.365571      0.199507 
 H171  H     0.368519      0.491510      0.196949 
 H172  H     0.414523     -0.402623      0.190977 
 H173  H    -0.359263     -0.474991      0.187197 
 N174  N    -0.494123      0.495411      0.185528 
 H175  H    -0.429003     -0.383607      0.186514 
 C176  C    -0.297826     -0.280140      0.061113 
 C177  C    -0.329370     -0.303047     -0.004099 
 C178  C    -0.298009     -0.260658     -0.066007 
 C179  C    -0.231300     -0.198624     -0.061799 
 C180  C    -0.198204     -0.177291      0.003282 
 C181  C    -0.230604     -0.218698      0.065376 
 O182  O    -0.333719     -0.280511     -0.128735 
 C183  C    -0.313618     -0.226220     -0.189383 
 C184  C    -0.380117     -0.244929     -0.244549 
 C185  C    -0.368928     -0.187955     -0.311451 
 C186  C    -0.436278     -0.208069     -0.366629 
 O187  O    -0.194814     -0.199996      0.128423 
 C188  C    -0.211061     -0.258282      0.187539 
 C189  C    -0.138806     -0.246765      0.239446 
 C190  C    -0.147137     -0.308373      0.303892 
 C191  C    -0.076246     -0.293533      0.357358 
 H192  H    -0.204743     -0.166860     -0.109661 
 H193  H    -0.324161     -0.311990      0.108950 
 H194  H    -0.275342     -0.243291      0.211422 
 H195  H    -0.212336     -0.326103      0.170862 
 H196  H    -0.316468     -0.157409     -0.175589 
 H197  H    -0.246929     -0.240504     -0.208751 
 H198  H    -0.075263     -0.257346      0.212547 
 H199  H    -0.138115     -0.179392      0.257003 
 H200  H    -0.375419     -0.313544     -0.258554 
 H201  H    -0.446315     -0.235831     -0.221881 
 H202  H    -0.373763     -0.119182     -0.297876 
 H203  H    -0.302844     -0.196632     -0.334295 
 H204  H    -0.211701     -0.300363      0.329661 
 H205  H    -0.144528     -0.375991      0.286810 
 H206  H    -0.086339     -0.335998      0.404035 
 H207  H    -0.010701     -0.306051      0.335063 
 H208  H    -0.077048     -0.226491      0.375463 
 H209  H    -0.424124     -0.168870     -0.414813 
 H210  H    -0.433457     -0.276348     -0.381434 
 H211  H     0.496804     -0.195188     -0.347488 
 Cu212  Cu    -0.002381      0.001030     -0.435829 
 Cu213  Cu     0.002911      0.009674      0.427764 
 O214  O    -0.078930      0.109310      0.440772 
 C215  C    -0.120223      0.118755      0.499213 
 O216  O    -0.105923      0.076309     -0.444139 
 O217  O     0.104545      0.088131      0.435401 
 C218  C     0.115549      0.124175      0.493800 
 O219  O     0.075347      0.104868     -0.448333 
 O220  O    -0.098848     -0.071275      0.438032 
 C221  C    -0.116571     -0.112495      0.495515 
 O222  O    -0.079274     -0.100992     -0.446474 
 O223  O     0.085737     -0.089281      0.437756 
 C224  C     0.121213     -0.107923      0.495789 
 O225  O     0.100312     -0.075715     -0.445151 
 Cu226  Cu     0.496113      0.499527     -0.427853 
 Cu227  Cu    -0.497796     -0.491672      0.435731 
 O228  O     0.407147     -0.405447      0.444609 
 C229  C     0.388298     -0.372552     -0.496239 
 O230  O     0.421491     -0.395035     -0.438062 
 O231  O    -0.413276     -0.396309      0.447349 
 C232  C    -0.377338     -0.385318     -0.494045 
 O233  O    -0.396374     -0.426928     -0.436970 
 O234  O     0.415885      0.411224      0.447001 
 C235  C     0.376159      0.392577     -0.494752 
 O236  O     0.389104      0.428099     -0.436411 
 O237  O    -0.400192      0.425456      0.444437 
 C238  C    -0.386334      0.384508     -0.498115 
 O239  O    -0.428803      0.394752     -0.440325 
 C240  C    -0.323189      0.248109     -0.449998 
 C241  C    -0.314999      0.317949     -0.498172 
 C242  C    -0.242999      0.324204      0.454511 
 C243  C    -0.181262      0.257238      0.453699 
 C244  C    -0.189980      0.186882     -0.498708 
 C245  C    -0.261498      0.181061     -0.450867 
 O246  O    -0.235700      0.394983      0.409552 
 C247  C    -0.150311      0.429686      0.392376 
 C248  C    -0.113749      0.473838      0.455994 
 C249  C    -0.016110      0.496306      0.447538 
 C250  C     0.018570     -0.451841     -0.491496 
 O251  O    -0.268370      0.110664     -0.405475 
 C252  C    -0.353410      0.074696     -0.389080 
 C253  C    -0.386758      0.026956     -0.452159 
 C254  C    -0.485173      0.007130     -0.446798 
 C255  C     0.481565     -0.044067      0.491348 
 H256  H    -0.125922      0.259846      0.416287 
 H257  H    -0.378493      0.245512     -0.412565 
 H258  H    -0.346472      0.029249     -0.344110 
 H259  H    -0.399118      0.125190     -0.371790 
 H260  H    -0.106396      0.379019      0.372597 
 H261  H    -0.157731      0.477309      0.348942 
 H262  H    -0.372655      0.065274      0.499290 
 H263  H    -0.349976     -0.033840     -0.458005 
 H264  H    -0.151438     -0.466804      0.466069 
 H265  H    -0.123711      0.432006     -0.496749 
 H266  H     0.021369      0.435789      0.442901 
 H267  H    -0.004049     -0.466980      0.397869 
 H268  H     0.499523     -0.028973     -0.397336 
 H269  H     0.478787      0.068657     -0.443582 
 H270  H     0.410880     -0.055780      0.497061 
 H271  H     0.494058     -0.008790      0.441224 
 H272  H    -0.486544     -0.107571      0.487736 
 H273  H     0.088716     -0.438190     -0.499110 
 H274  H    -0.014983     -0.389268     -0.486892 
 H275  H     0.009200     -0.487639     -0.441235 
 N276  N    -0.000149     -0.004039     -0.184984 
 C277  C     0.009586     -0.092982     -0.211528 
 C278  C    -0.083446      0.031296     -0.210218 
 C279  C     0.071552      0.050320     -0.215917 
 C280  C    -0.086737      0.028102     -0.291912 
 H281  H    -0.138422     -0.005192     -0.184966 
 H282  H    -0.089076      0.098992     -0.193557 
 C283  C     0.011995     -0.091708     -0.293588 
 H284  H     0.069619     -0.122157     -0.191296 
 H285  H    -0.045241     -0.133216     -0.190380 
 C286  C     0.067688      0.053982     -0.297707 
 H287  H     0.067190      0.116158     -0.194819 
 H288  H     0.134187      0.023077     -0.199295 
 H289  H     0.075819     -0.114554     -0.313663 
 H290  H    -0.037700     -0.135994     -0.313437 
 H291  H    -0.139340     -0.015532     -0.307939 
 H292  H    -0.101058      0.092953     -0.314256 
 H293  H     0.130579      0.034238     -0.321858 
 N294  N    -0.002784     -0.002825     -0.321927 
 H295  H     0.055375      0.120962     -0.316394 
 C296  C     0.223319      0.339369     -0.471158 
 C297  C     0.308828      0.322152     -0.494730 
 C298  C     0.331905      0.241666      0.477902 
 C299  C     0.267858      0.177567      0.471199 
 C300  C     0.182384      0.194843      0.494628 
 C301  C     0.159416      0.274944     -0.477265 
 O302  O     0.418498      0.228020      0.463441 
 C303  C     0.442937      0.189335      0.398523 
 C304  C    -0.459022      0.202679      0.388843 
 C305  C    -0.420816      0.175770      0.317337 
 C306  C    -0.322954      0.196064      0.308585 
 O307  O     0.073271      0.288536     -0.460850 
 C308  C     0.051936      0.312078     -0.390376 
 C309  C    -0.044897      0.294270     -0.376852 
 C310  C    -0.077912      0.314415     -0.302169 
 C311  C    -0.175728      0.295908     -0.290437 
 H312  H     0.285525      0.114067      0.451310 
 H313  H     0.205227      0.402691     -0.451192 
 H314  H     0.091824      0.273805     -0.353826 
 H315  H     0.067363      0.381137     -0.384679 
 H316  H     0.425493      0.120056      0.400917 
 H317  H     0.407281      0.221157      0.355711 
 H318  H    -0.082983      0.331829     -0.415033 
 H319  H    -0.058096      0.225536     -0.386979 
 H320  H    -0.444017      0.271609      0.396196 
 H321  H    -0.425433      0.167225      0.430885 
 H322  H    -0.431877      0.105899      0.311109 
 H323  H    -0.456105      0.209053      0.275042 
 H324  H    -0.040842      0.275882     -0.263887 
 H325  H    -0.064521      0.382968     -0.291552 
 H326  H    -0.197369      0.310047     -0.236473 
 H327  H    -0.214945      0.335529     -0.326369 
 H328  H    -0.191089      0.227516     -0.299524 
 H329  H    -0.297029      0.177446      0.256821 
 H330  H    -0.309976      0.265728      0.313698 
 H331  H    -0.285359      0.161311      0.348634 
 C332  C     0.204021     -0.221364     -0.440755 
 C333  C     0.192819     -0.174037      0.496537 
 C334  C     0.247495     -0.188329      0.437545 
 C335  C     0.311524     -0.252923      0.440903 
 C336  C     0.321540     -0.301474     -0.496657 
 C337  C     0.267448     -0.286280     -0.437550 
 O338  O     0.236245     -0.139629      0.377598 
 C339  C     0.312739     -0.108710      0.339524 
 C340  C     0.287973     -0.022969      0.304297 
 C341  C     0.364742      0.027174      0.269143 
 C342  C     0.337728      0.115880      0.238727 
 O343  O     0.276588     -0.335000     -0.377428 
 C344  C     0.197896     -0.365854     -0.342589 
 C345  C     0.218355     -0.454257     -0.310333 
 C346  C     0.138288      0.497193     -0.279306 
 C347  C     0.160587      0.406236     -0.250876 
 H348  H     0.352240     -0.265525      0.394379 
 H349  H     0.162955     -0.209220     -0.394343 
 H350  H     0.177492     -0.319715     -0.302138 
 H351  H     0.145120     -0.370880     -0.380354 
 H352  H     0.366710     -0.099806      0.375606 
 H353  H     0.332999     -0.156784      0.300555 
 H354  H     0.250106     -0.494180     -0.350814 
 H355  H     0.265845     -0.446612     -0.268743 
 H356  H     0.238976     -0.034960      0.264578 
 H357  H     0.256248      0.018242      0.343906 
 H358  H     0.416174      0.035805      0.307393 
 H359  H     0.393853     -0.011975      0.227199 
 H360  H     0.108788     -0.464323     -0.237155 
 H361  H     0.088543      0.492700     -0.319481 
 H362  H     0.102084      0.372181     -0.229643 
 H363  H     0.189867      0.366292     -0.292221 
 H364  H     0.207774      0.409290     -0.208705 
 H365  H     0.394060      0.151482      0.215233 
 H366  H     0.289436      0.108961      0.197711 
 H367  H     0.308181      0.156564      0.279459 
 N368  N     0.493835      0.483846     -0.177526 
 C369  C     0.438617      0.412669     -0.202483 
 C370  C     0.459148     -0.433300     -0.205497 
 C371  C    -0.416813      0.472308     -0.207154 
 C372  C     0.463613     -0.431112     -0.287360 
 H373  H     0.390980     -0.426576     -0.186354 
 H374  H     0.495974     -0.378589     -0.184655 
 C375  C     0.435722      0.415459     -0.284461 
 H376  H     0.465019      0.350312     -0.183170 
 H377  H     0.372283      0.418339     -0.179089 
 C378  C    -0.417667      0.468477     -0.288976 
 H379  H    -0.376109     -0.473191     -0.190832 
 H380  H    -0.388239      0.412635     -0.184705 
 H381  H     0.455627      0.352745     -0.306288 
 H382  H     0.368736      0.427596     -0.301526 
 H383  H     0.399373     -0.415394     -0.308366 
 H384  H    -0.491194     -0.379932     -0.307262 
 H385  H    -0.395895      0.404314     -0.306623 
 N386  N     0.493653      0.484768     -0.314430 
 H387  H    -0.372271     -0.483498     -0.313538 
 C388  C    -0.314287     -0.250814      0.453138 
 C389  C    -0.309248     -0.315099     -0.493941 
 C390  C    -0.243078     -0.312923     -0.444531 
 C391  C    -0.180911     -0.245927     -0.450190 
 C392  C    -0.185623     -0.181902      0.496569 
 C393  C    -0.252350     -0.183654      0.447512 
 O394  O    -0.240935     -0.376302     -0.392700 
 C395  C    -0.176325     -0.372053     -0.339735 
 C396  C    -0.203270     -0.434988     -0.280215 
 C397  C    -0.141821     -0.436369     -0.218068 
 C398  C    -0.176982     -0.491731     -0.155235 
 O399  O    -0.255496     -0.120271      0.395637 
 C400  C    -0.324500     -0.121799      0.346085 
 C401  C    -0.302337     -0.057266      0.286473 
 C402  C    -0.369571     -0.053149      0.228344 
 C403  C    -0.339738      0.004485      0.165129 
 H404  H    -0.127607     -0.244038     -0.413519 
 H405  H    -0.367624     -0.253099      0.416495 
 H406  H    -0.330833     -0.187182      0.324870 
 H407  H    -0.386439     -0.105032      0.373124 
 H408  H    -0.112185     -0.389089     -0.362983 
 H409  H    -0.172568     -0.305809     -0.319729 
 H410  H    -0.293214      0.007759      0.307754 
 H411  H    -0.239347     -0.075609      0.262435 
 H412  H    -0.268505     -0.416423     -0.260648 
 H413  H    -0.209415      0.499069     -0.300499 
 H414  H    -0.077549     -0.460681     -0.235519 
 H415  H    -0.131261     -0.369543     -0.201083 
 H416  H    -0.382353     -0.119140      0.210313 
 H417  H    -0.432026     -0.029306      0.250122 
 H418  H    -0.389130      0.007140      0.124568 
 H419  H    -0.327171      0.071427      0.180462 
 H420  H    -0.279335     -0.020089      0.140347 
 H421  H    -0.131688     -0.491975     -0.111677 
 H422  H    -0.239508     -0.466679     -0.134704 
 H423  H    -0.187475      0.440523     -0.169482 
loop_  
_geom_bond_atom_site_label_1  
_geom_bond_atom_site_label_2  
Cu0   Cu1 
Cu0   O4 
Cu0   O7 
Cu0   O10 
Cu0   O13 
Cu0   N82 
Cu1   O2 
Cu1   O5 
Cu1   O8 
Cu1   O11 
Cu1   N276 
O2   C3 
C3   O4 
C3   C32 
O5   C6 
C6   O7 
C6   C88 
O8   C9 
C9   O10 
C9   C180 
O11   C12 
C12   O13 
C12   C124 
Cu14   Cu15 
Cu14   O18 
Cu14   O21 
Cu14   O24 
Cu14   O27 
Cu14   N174 
Cu15   O16 
Cu15   O19 
Cu15   O22 
Cu15   O25 
Cu15   N368 
O16   C17 
C17   O18 
C17   C121 
O19   C20 
C20   O21 
C20   C177 
O22   C23 
C23   O24 
C23   C85 
O25   C26 
C26   O27 
C26   C29 
C28   C29 
C28   C33 
C28   H45 
C29   C30 
C30   C31 
C30   O34 
C31   C32 
C31   H44 
C32   C33 
C33   O39 
O34   C35 
C35   C36 
C35   H48 
C35   H49 
C36   C37 
C36   H52 
C36   H53 
C37   C38 
C37   H54 
C37   H55 
C38   H61 
C38   H62 
C38   H63 
O39   C40 
C40   C41 
C40   H46 
C40   H47 
C41   C42 
C41   H50 
C41   H51 
C42   C43 
C42   H56 
C42   H57 
C43   H58 
C43   H59 
C43   H60 
N64   C65 
N64   C66 
N64   C67 
N64   Cu213 
C65   C71 
C65   H72 
C65   H73 
C66   C68 
C66   H69 
C66   H70 
C67   C74 
C67   H75 
C67   H76 
C68   H79 
C68   H80 
C68   N82 
C71   H77 
C71   H78 
C71   N82 
C74   H81 
C74   N82 
C74   H83 
C84   C85 
C84   C89 
C84   H101 
C85   C86 
C86   C87 
C86   O90 
C87   C88 
C87   H100 
C88   C89 
C89   O95 
O90   C91 
C91   C92 
C91   H104 
C91   H105 
C92   C93 
C92   H108 
C92   H109 
C93   C94 
C93   H110 
C93   H111 
C94   H117 
C94   H118 
C94   H119 
O95   C96 
C96   C97 
C96   H102 
C96   H103 
C97   C98 
C97   H106 
C97   H107 
C98   C99 
C98   H112 
C98   H113 
C99   H114 
C99   H115 
C99   H116 
C120   C121 
C120   C125 
C120   H137 
C121   C122 
C122   C123 
C122   O126 
C123   C124 
C123   H136 
C124   C125 
C125   O131 
O126   C127 
C127   C128 
C127   H140 
C127   H141 
C128   C129 
C128   H144 
C128   H145 
C129   C130 
C129   H146 
C129   H147 
C130   H153 
C130   H154 
C130   H155 
O131   C132 
C132   C133 
C132   H138 
C132   H139 
C133   C134 
C133   H142 
C133   H143 
C134   C135 
C134   H148 
C134   H149 
C135   H150 
C135   H151 
C135   H152 
N156   C157 
N156   C158 
N156   C159 
N156   Cu227 
C157   C163 
C157   H164 
C157   H165 
C158   C160 
C158   H161 
C158   H162 
C159   C166 
C159   H167 
C159   H168 
C160   H171 
C160   H172 
C160   N174 
C163   H169 
C163   H170 
C163   N174 
C166   H173 
C166   N174 
C166   H175 
C176   C177 
C176   C181 
C176   H193 
C177   C178 
C178   C179 
C178   O182 
C179   C180 
C179   H192 
C180   C181 
C181   O187 
O182   C183 
C183   C184 
C183   H196 
C183   H197 
C184   C185 
C184   H200 
C184   H201 
C185   C186 
C185   H202 
C185   H203 
C186   H209 
C186   H210 
C186   H211 
O187   C188 
C188   C189 
C188   H194 
C188   H195 
C189   C190 
C189   H198 
C189   H199 
C190   C191 
C190   H204 
C190   H205 
C191   H206 
C191   H207 
C191   H208 
Cu212   Cu213 
Cu212   O216 
Cu212   O219 
Cu212   O222 
Cu212   O225 
Cu212   N294 
Cu213   O214 
Cu213   O217 
Cu213   O220 
Cu213   O223 
O214   C215 
C215   O216 
C215   C244 
O217   C218 
C218   O219 
C218   C300 
O220   C221 
C221   O222 
C221   C392 
O223   C224 
C224   O225 
C224   C333 
Cu226   Cu227 
Cu226   O230 
Cu226   O233 
Cu226   O236 
Cu226   O239 
Cu226   N386 
Cu227   O228 
Cu227   O231 
Cu227   O234 
Cu227   O237 
O228   C229 
C229   O230 
C229   C336 
O231   C232 
C232   O233 
C232   C389 
O234   C235 
C235   O236 
C235   C297 
O237   C238 
C238   O239 
C238   C241 
C240   C241 
C240   C245 
C240   H257 
C241   C242 
C242   C243 
C242   O246 
C243   C244 
C243   H256 
C244   C245 
C245   O251 
O246   C247 
C247   C248 
C247   H260 
C247   H261 
C248   C249 
C248   H264 
C248   H265 
C249   C250 
C249   H266 
C249   H267 
C250   H273 
C250   H274 
C250   H275 
O251   C252 
C252   C253 
C252   H258 
C252   H259 
C253   C254 
C253   H262 
C253   H263 
C254   C255 
C254   H268 
C254   H269 
C255   H270 
C255   H271 
C255   H272 
N276   C277 
N276   C278 
N276   C279 
C277   C283 
C277   H284 
C277   H285 
C278   C280 
C278   H281 
C278   H282 
C279   C286 
C279   H287 
C279   H288 
C280   H291 
C280   H292 
C280   N294 
C283   H289 
C283   H290 
C283   N294 
C286   H293 
C286   N294 
C286   H295 
C296   C297 
C296   C301 
C296   H313 
C297   C298 
C298   C299 
C298   O302 
C299   C300 
C299   H312 
C300   C301 
C301   O307 
O302   C303 
C303   C304 
C303   H316 
C303   H317 
C304   C305 
C304   H320 
C304   H321 
C305   C306 
C305   H322 
C305   H323 
C306   H329 
C306   H330 
C306   H331 
O307   C308 
C308   C309 
C308   H314 
C308   H315 
C309   C310 
C309   H318 
C309   H319 
C310   C311 
C310   H324 
C310   H325 
C311   H326 
C311   H327 
C311   H328 
C332   C333 
C332   C337 
C332   H349 
C333   C334 
C334   C335 
C334   O338 
C335   C336 
C335   H348 
C336   C337 
C337   O343 
O338   C339 
C339   C340 
C339   H352 
C339   H353 
C340   C341 
C340   H356 
C340   H357 
C341   C342 
C341   H358 
C341   H359 
C342   H365 
C342   H366 
C342   H367 
O343   C344 
C344   C345 
C344   H350 
C344   H351 
C345   C346 
C345   H354 
C345   H355 
C346   C347 
C346   H360 
C346   H361 
C347   H362 
C347   H363 
C347   H364 
N368   C369 
N368   C370 
N368   C371 
C369   C375 
C369   H376 
C369   H377 
C370   C372 
C370   H373 
C370   H374 
C371   C378 
C371   H379 
C371   H380 
C372   H383 
C372   H384 
C372   N386 
C375   H381 
C375   H382 
C375   N386 
C378   H385 
C378   N386 
C378   H387 
C388   C389 
C388   C393 
C388   H405 
C389   C390 
C390   C391 
C390   O394 
C391   C392 
C391   H404 
C392   C393 
C393   O399 
O394   C395 
C395   C396 
C395   H408 
C395   H409 
C396   C397 
C396   H412 
C396   H413 
C397   C398 
C397   H414 
C397   H415 
C398   H421 
C398   H422 
C398   H423 
O399   C400 
C400   C401 
C400   H406 
C400   H407 
C401   C402 
C401   H410 
C401   H411 
C402   C403 
C402   H416 
C402   H417 
C403   H418 
C403   H419 
C403   H420 
  
#END  
