data_
_symmetry_cell_setting           triclinic 
_symmetry_space_group_name_H-M   'P 1' 
_symmetry_Int_Tables_number      1 
loop_ 
_symmetry_equiv_pos_site_id 
_symmetry_equiv_pos_as_xyz 
1 x,y,z 
_cell_length_a             15.687952        
_cell_length_b             15.157523        
_cell_length_c             19.148218        
_cell_angle_alpha          90.089271        
_cell_angle_beta           90.270779        
_cell_angle_gamma          89.863019        
loop_  
_atom_site_label   
_atom_site_type_symbol  
_atom_site_fract_x  
_atom_site_fract_y  
_atom_site_fract_z 
 Cu0  Cu     0.002522      0.005607      0.067798 
 Cu1  Cu    -0.003653      0.001910     -0.068090 
 O2  O    -0.098186      0.087249     -0.057534 
 C3  C    -0.109156      0.128687     -0.000319 
 O4  O    -0.069304      0.114457      0.056729 
 O5  O     0.077330      0.102543     -0.059617 
 C6  C     0.116400      0.119545     -0.002693 
 O7  O     0.103685      0.081260      0.055539 
 O8  O    -0.086033     -0.096094     -0.054220 
 C9  C    -0.120671     -0.110917      0.004709 
 O10  O    -0.101143     -0.071601      0.061459 
 O11  O     0.091516     -0.084756     -0.061080 
 C12  C     0.112498     -0.119468     -0.002966 
 O13  O     0.080135     -0.099380      0.056090 
 Cu14  Cu    -0.496675     -0.499600      0.068389 
 Cu15  Cu     0.496963      0.496484     -0.067548 
 O16  O     0.417551     -0.400264     -0.055683 
 C17  C     0.385924     -0.379537      0.003492 
 O18  O     0.407064     -0.414178      0.061596 
 O19  O    -0.401108     -0.423476     -0.060598 
 C20  C    -0.381679     -0.384156     -0.003849 
 O21  O    -0.415675     -0.399910      0.055194 
 O22  O     0.397595      0.418482     -0.056015 
 C23  C     0.385026      0.380412      0.002330 
 O24  O     0.423582      0.398279      0.059343 
 O25  O    -0.429298      0.389112     -0.056690 
 C26  C    -0.389596      0.375066      0.000456 
 O27  O    -0.401023      0.416348      0.057687 
 C28  C    -0.258022      0.166105     -0.025779 
 C29  C    -0.179441      0.195354     -0.000423 
 C30  C    -0.169107      0.282080      0.023776 
 C31  C    -0.240560      0.337858      0.025874 
 C32  C    -0.319227      0.308495      0.000697 
 C33  C    -0.329618      0.221664     -0.023315 
 O34  O    -0.090144      0.312322      0.042945 
 C35  C    -0.078022      0.405885      0.035936 
 C36  C     0.016027      0.428362      0.031917 
 C37  C     0.031310     -0.483241     -0.005276 
 C38  C     0.123976     -0.451816     -0.002841 
 O39  O    -0.408605      0.190934     -0.042084 
 C40  C    -0.419343      0.097004     -0.036456 
 C41  C     0.487237      0.071928     -0.032424 
 C42  C     0.474995     -0.018390      0.002637 
 C43  C     0.383480     -0.053152     -0.000093 
 H44  H    -0.235360      0.405321      0.045801 
 H45  H    -0.262983      0.098691     -0.045879 
 H46  H    -0.390010      0.065122     -0.082232 
 H47  H    -0.385785      0.073439      0.010705 
 H48  H    -0.110961      0.428986     -0.011655 
 H49  H    -0.106963      0.439446      0.081126 
 H50  H     0.451532      0.122574     -0.003300 
 H51  H     0.460343      0.070961     -0.085622 
 H52  H     0.042333      0.430720      0.085283 
 H53  H     0.050726      0.375573      0.004376 
 H54  H     0.011026     -0.489054     -0.060202 
 H55  H    -0.010196     -0.432283      0.017613 
 H56  H    -0.482061     -0.066897     -0.021742 
 H57  H     0.495560     -0.014014      0.057585 
 H58  H     0.379557     -0.117372      0.025941 
 H59  H     0.338412     -0.008165      0.025647 
 H60  H     0.361600     -0.063142     -0.054056 
 H61  H     0.130265     -0.388799     -0.030265 
 H62  H     0.145964     -0.440727      0.050953 
 H63  H     0.167667     -0.499298     -0.027321 
 N64  N    -0.001329      0.012891      0.318724 
 C65  C    -0.018801     -0.075876      0.290419 
 C66  C    -0.066859      0.074073      0.291022 
 C67  C     0.082758      0.041635      0.292353 
 C68  C    -0.064775      0.076393      0.209329 
 H69  H    -0.129977      0.052565      0.309389 
 H70  H    -0.055929      0.140382      0.313092 
 C71  C    -0.019504     -0.074688      0.208753 
 H72  H     0.030280     -0.121301      0.310465 
 H73  H    -0.080252     -0.099572      0.310601 
 C74  C     0.084105      0.041005      0.210617 
 H75  H     0.096147      0.108401      0.312435 
 H76  H     0.132822     -0.002055      0.313629 
 H77  H     0.027138     -0.121900      0.187608 
 H78  H    -0.082225     -0.095219      0.188583 
 H79  H    -0.127566      0.059037      0.187142 
 H80  H    -0.049845      0.143405      0.190699 
 H81  H     0.133170     -0.004997      0.191114 
 N82  N     0.000116      0.014427      0.182076 
 H83  H     0.100485      0.106904      0.190411 
 C84  C     0.246715      0.182956      0.049990 
 C85  C     0.184746      0.188662     -0.002726 
 C86  C     0.187896      0.255772     -0.053179 
 C87  C     0.255378      0.316224     -0.050575 
 C88  C     0.317275      0.310653      0.002207 
 C89  C     0.314239      0.243411      0.052568 
 O90  O     0.124920      0.260573     -0.103109 
 C91  C     0.120954      0.336664     -0.147610 
 C92  C     0.040727      0.334001     -0.192642 
 C93  C    -0.042674      0.327324     -0.151173 
 C94  C    -0.123011      0.330701     -0.197091 
 O95  O     0.377218      0.238637      0.102490 
 C96  C     0.381115      0.162529      0.146998 
 C97  C     0.460957      0.165615      0.192481 
 C98  C    -0.455312      0.172551      0.151484 
 C99  C    -0.375427      0.170371      0.197967 
 H100  H     0.259118      0.368918     -0.089212 
 H101  H     0.242813      0.130287      0.088658 
 H102  H     0.323912      0.161446      0.180163 
 H103  H     0.381396      0.102385      0.114630 
 H104  H     0.121147      0.396804     -0.115268 
 H105  H     0.177910      0.337484     -0.181059 
 H106  H     0.456149      0.221019      0.229469 
 H107  H     0.463042      0.105423      0.224458 
 H108  H     0.038606      0.394280     -0.224508 
 H109  H     0.044995      0.278656     -0.229726 
 H110  H    -0.042512      0.266027     -0.120299 
 H111  H    -0.045237      0.381490     -0.113041 
 H112  H    -0.451971      0.117985      0.113731 
 H113  H    -0.455634      0.233546      0.120229 
 H114  H    -0.317340      0.176395      0.166401 
 H115  H    -0.375393      0.224713      0.236015 
 H116  H    -0.370962      0.108188      0.227200 
 H117  H    -0.180797      0.324498     -0.165180 
 H118  H    -0.127489      0.393399     -0.225643 
 H119  H    -0.123741      0.276975     -0.235680 
 C120  C     0.271954     -0.297462     -0.059223 
 C121  C     0.316725     -0.310269      0.003365 
 C122  C     0.295908     -0.260338      0.062975 
 C123  C     0.227685     -0.200213      0.059676 
 C124  C     0.182545     -0.187834     -0.002833 
 C125  C     0.203525     -0.237631     -0.062500 
 O126  O     0.342719     -0.271640      0.122918 
 C127  C     0.348249     -0.200356      0.172313 
 C128  C     0.408141     -0.229680      0.230487 
 C129  C     0.422284     -0.160742      0.288077 
 C130  C     0.475782     -0.196116      0.349265 
 O131  O     0.156863     -0.226685     -0.122592 
 C132  C     0.152717     -0.297811     -0.172268 
 C133  C     0.094308     -0.268817     -0.231504 
 C134  C     0.081312     -0.338370     -0.288810 
 C135  C     0.029214     -0.303626     -0.351001 
 H136  H     0.210181     -0.161913      0.105777 
 H137  H     0.289616     -0.335712     -0.105299 
 H138  H     0.216660     -0.312714     -0.192579 
 H139  H     0.128033     -0.357430     -0.146589 
 H140  H     0.372388     -0.140847      0.146106 
 H141  H     0.284832     -0.185281      0.193626 
 H142  H     0.031770     -0.249693     -0.210210 
 H143  H     0.121602     -0.209413     -0.255342 
 H144  H     0.381675     -0.289405      0.254416 
 H145  H     0.470180     -0.248474      0.208068 
 H146  H     0.453494     -0.102506      0.265470 
 H147  H     0.360174     -0.138131      0.307897 
 H148  H     0.143804     -0.361320     -0.307554 
 H149  H     0.049487     -0.396290     -0.266272 
 H150  H     0.017591     -0.355606     -0.389897 
 H151  H    -0.032938     -0.277710     -0.334569 
 H152  H     0.062417     -0.249753     -0.377741 
 H153  H     0.487916     -0.144613      0.388466 
 H154  H     0.443364     -0.250549      0.375984 
 H155  H    -0.462252     -0.221401      0.331751 
 N156  N    -0.487242      0.491136      0.318757 
 C157  C    -0.480810      0.400513      0.290461 
 C158  C     0.433097     -0.468775      0.292113 
 C159  C    -0.414718     -0.457168      0.291440 
 C160  C     0.431845     -0.468560      0.210528 
 H161  H     0.378121      0.494673      0.312816 
 H162  H     0.428070     -0.401003      0.312487 
 C163  C    -0.481166      0.401844      0.208767 
 H164  H    -0.421942      0.369441      0.310420 
 H165  H     0.465646      0.361054      0.310455 
 C166  C    -0.416077     -0.455476      0.209757 
 H167  H    -0.418125     -0.389414      0.312341 
 H168  H    -0.354759     -0.486257      0.311170 
 H169  H    -0.422137      0.372255      0.188175 
 H170  H     0.465407      0.362658      0.187920 
 H171  H     0.377015      0.493841      0.190432 
 H172  H     0.424798     -0.400977      0.190540 
 H173  H    -0.356388     -0.482711      0.188312 
 N174  N    -0.488871      0.492995      0.182250 
 H175  H    -0.421274     -0.387022      0.190743 
 C176  C    -0.306761     -0.261200      0.056047 
 C177  C    -0.314256     -0.313066     -0.004320 
 C178  C    -0.259184     -0.298510     -0.060926 
 C179  C    -0.196462     -0.232790     -0.055368 
 C180  C    -0.188928     -0.181043      0.004964 
 C181  C    -0.244303     -0.195115      0.061356 
 O182  O    -0.267357     -0.348577     -0.120244 
 C183  C    -0.208267     -0.335312     -0.176311 
 C184  C    -0.236309     -0.391860     -0.237622 
 C185  C    -0.175362     -0.388718     -0.299910 
 C186  C    -0.205079     -0.446127     -0.361127 
 O187  O    -0.236278     -0.143615      0.119868 
 C188  C    -0.293238     -0.157552      0.177157 
 C189  C    -0.265989     -0.096867      0.236220 
 C190  C    -0.321825     -0.104336      0.301400 
 C191  C    -0.290678     -0.045922      0.361458 
 H192  H    -0.152435     -0.221806     -0.098462 
 H193  H    -0.350374     -0.272301      0.099397 
 H194  H    -0.359089     -0.142933      0.160370 
 H195  H    -0.289665     -0.226912      0.194184 
 H196  H    -0.208127     -0.265334     -0.191881 
 H197  H    -0.143690     -0.353786     -0.158587 
 H198  H    -0.199971     -0.112986      0.250856 
 H199  H    -0.265787     -0.028037      0.217778 
 H200  H    -0.244151     -0.460756     -0.220527 
 H201  H    -0.299311     -0.368353     -0.254984 
 H202  H    -0.169239     -0.319984     -0.317726 
 H203  H    -0.111465     -0.410196     -0.282962 
 H204  H    -0.387877     -0.086409      0.287823 
 H205  H    -0.322964     -0.173486      0.318978 
 H206  H    -0.332811     -0.051121      0.406927 
 H207  H    -0.226241     -0.064951      0.378576 
 H208  H    -0.288282      0.023502      0.345359 
 H209  H    -0.159375     -0.443989     -0.404383 
 H210  H    -0.212482      0.484870     -0.344920 
 H211  H    -0.266992     -0.423650     -0.381567 
 Cu212  Cu    -0.001977     -0.001418     -0.431322 
 Cu213  Cu    -0.002151      0.000314      0.432720 
 O214  O    -0.104997      0.077198      0.443729 
 C215  C    -0.120757      0.114754     -0.498150 
 O216  O    -0.084791      0.097142     -0.440040 
 O217  O     0.074791      0.105066      0.448919 
 C218  C     0.111578      0.121065     -0.492713 
 O219  O     0.093389      0.083919     -0.435154 
 O220  O    -0.076958     -0.106166      0.442133 
 C221  C    -0.113455     -0.123374      0.499838 
 O222  O    -0.098280     -0.085413     -0.442050 
 O223  O     0.098865     -0.078502      0.437035 
 C224  C     0.117014     -0.116493      0.494535 
 O225  O     0.082126     -0.099511     -0.446836 
 Cu226  Cu    -0.499935      0.499408     -0.431920 
 Cu227  Cu    -0.498819     -0.499880      0.432120 
 O228  O     0.418158     -0.400783      0.446527 
 C229  C     0.383015     -0.383400     -0.495027 
 O230  O     0.399729     -0.421948     -0.437529 
 O231  O    -0.402074     -0.416511      0.442478 
 C232  C    -0.387576     -0.377656     -0.499667 
 O233  O    -0.424798     -0.393991     -0.442106 
 O234  O     0.405049      0.415431      0.436837 
 C235  C     0.386462      0.378664      0.494488 
 O236  O     0.422832      0.394969     -0.447019 
 O237  O    -0.416821      0.401168      0.442223 
 C238  C    -0.381287      0.384144     -0.499365 
 O239  O    -0.397296      0.422340     -0.441558 
 C240  C    -0.264394      0.169374      0.465753 
 C241  C    -0.187883      0.185229     -0.498434 
 C242  C    -0.173464      0.265047     -0.463200 
 C243  C    -0.238055      0.329261     -0.462327 
 C244  C    -0.314454      0.313433     -0.498312 
 C245  C    -0.328986      0.233557      0.466604 
 O246  O    -0.095144      0.275350     -0.432326 
 C247  C    -0.067473      0.360859     -0.410206 
 C248  C     0.028331      0.355175     -0.397873 
 C249  C     0.068308      0.442590     -0.373847 
 C250  C     0.164581      0.435838     -0.360515 
 O251  O    -0.407424      0.223426      0.435850 
 C252  C    -0.434755      0.138525      0.412057 
 C253  C     0.469487      0.144250      0.399415 
 C254  C     0.429788      0.057153      0.374338 
 C255  C     0.333619      0.063967      0.360485 
 H256  H    -0.228495      0.391606     -0.434968 
 H257  H    -0.274069      0.106997      0.438546 
 H258  H    -0.400807      0.122094      0.363537 
 H259  H    -0.419595      0.088064      0.451581 
 H260  H    -0.082679      0.410180     -0.450622 
 H261  H    -0.101147      0.378900     -0.361901 
 H262  H     0.437902      0.165176      0.448026 
 H263  H     0.455976      0.196528      0.360980 
 H264  H     0.042001      0.303501     -0.358975 
 H265  H     0.059571      0.333410     -0.446406 
 H266  H     0.056155      0.493538     -0.413546 
 H267  H     0.036110      0.465553     -0.326256 
 H268  H     0.462408      0.034971      0.326716 
 H269  H     0.441647      0.005601      0.413613 
 H270  H     0.307154      0.000612      0.342947 
 H271  H     0.299252      0.082971      0.408093 
 H272  H     0.319210      0.113401      0.320213 
 H273  H     0.191277      0.499369     -0.343643 
 H274  H     0.179308      0.386859     -0.319969 
 H275  H     0.198462      0.416219     -0.408197 
 N276  N    -0.012440      0.007972     -0.181768 
 C277  C    -0.086505     -0.041807     -0.209019 
 C278  C    -0.018021      0.099135     -0.208532 
 C279  C     0.065821     -0.032718     -0.209974 
 C280  C    -0.018532      0.100052     -0.290188 
 H281  H    -0.076311      0.130283     -0.187971 
 H282  H     0.036362      0.137067     -0.187900 
 C283  C    -0.087874     -0.040616     -0.290708 
 H284  H    -0.082956     -0.110243     -0.189731 
 H285  H    -0.145486     -0.012872     -0.187645 
 C286  C     0.064533     -0.032782     -0.291541 
 H287  H     0.121650      0.003387     -0.189997 
 H288  H     0.071033     -0.100399     -0.189842 
 H289  H    -0.085977     -0.108573     -0.311327 
 H290  H    -0.147168     -0.010243     -0.310571 
 H291  H    -0.076745      0.132435     -0.310117 
 H292  H     0.035821      0.138144     -0.310360 
 H293  H     0.067927     -0.100723     -0.311790 
 N294  N    -0.014202      0.009150     -0.318211 
 H295  H     0.120350      0.002332     -0.312308 
 C296  C     0.298677      0.270602     -0.440724 
 C297  C     0.315585      0.311439      0.495379 
 C298  C     0.265857      0.290548      0.436319 
 C299  C     0.199366      0.229195      0.442616 
 C300  C     0.182470      0.188305     -0.493528 
 C301  C     0.232236      0.209161     -0.434465 
 O302  O     0.282217      0.330799      0.373815 
 C303  C     0.224160      0.316143      0.316914 
 C304  C     0.249404      0.375832      0.257204 
 C305  C     0.194184      0.363261      0.191724 
 C306  C     0.219493      0.425805      0.132850 
 O307  O     0.215899      0.168803     -0.372000 
 C308  C     0.274532      0.182362     -0.315319 
 C309  C     0.249760      0.121509     -0.256192 
 C310  C     0.305872      0.132255     -0.191010 
 C311  C     0.280994      0.068522     -0.132787 
 H312  H     0.160597      0.212179      0.397096 
 H313  H     0.337332      0.287735     -0.395151 
 H314  H     0.340006      0.167534     -0.332503 
 H315  H     0.271413      0.251769     -0.298298 
 H316  H     0.227473      0.246436      0.300714 
 H317  H     0.158522      0.331256      0.333526 
 H318  H     0.182916      0.134287     -0.242012 
 H319  H     0.253187      0.052588     -0.274361 
 H320  H     0.245352      0.445122      0.274381 
 H321  H     0.316503      0.363124      0.243783 
 H322  H     0.199778      0.294605      0.173393 
 H323  H     0.126555      0.373527      0.204666 
 H324  H     0.373266      0.121897     -0.204690 
 H325  H     0.300899      0.200515     -0.171666 
 H326  H     0.317655      0.081540     -0.084965 
 H327  H     0.213456      0.075618     -0.119399 
 H328  H     0.291392     -0.000505     -0.148206 
 H329  H     0.183539      0.411529      0.084893 
 H330  H     0.208529      0.495085      0.147222 
 H331  H     0.287252      0.418786      0.120212 
 C332  C     0.223242     -0.205651     -0.440101 
 C333  C     0.185752     -0.186060      0.495172 
 C334  C     0.212429     -0.230624      0.434530 
 C335  C     0.278628     -0.292724      0.439600 
 C336  C     0.315632     -0.312624     -0.495722 
 C337  C     0.289191     -0.268114     -0.435095 
 O338  O     0.173298     -0.214253      0.371672 
 C339  C     0.184224     -0.277968      0.316707 
 C340  C     0.116881     -0.261814      0.261101 
 C341  C     0.112334     -0.334031      0.205033 
 C342  C     0.039863     -0.318518      0.152493 
 O343  O     0.328783     -0.286376     -0.372782 
 C344  C     0.320023     -0.224758     -0.316249 
 C345  C     0.389750     -0.244023     -0.263067 
 C346  C     0.396600     -0.174663     -0.204862 
 C347  C     0.469417     -0.193981     -0.153426 
 H348  H     0.300925     -0.327084      0.392928 
 H349  H     0.201453     -0.171502     -0.393204 
 H350  H     0.325601     -0.156701     -0.335550 
 H351  H     0.256562     -0.232188     -0.292968 
 H352  H     0.248477     -0.271221      0.294753 
 H353  H     0.177985     -0.345216      0.337558 
 H354  H     0.378886     -0.309244     -0.239659 
 H355  H     0.451387     -0.247867     -0.290251 
 H356  H     0.054091     -0.257069      0.286346 
 H357  H     0.129247     -0.197827      0.236105 
 H358  H     0.173516     -0.337948      0.177191 
 H359  H     0.103415     -0.398544      0.230337 
 H360  H     0.406280     -0.109141     -0.228282 
 H361  H     0.335911     -0.170915     -0.176296 
 H362  H     0.474376     -0.141912     -0.113830 
 H363  H     0.459460     -0.256525     -0.125712 
 H364  H    -0.468778     -0.198101     -0.180061 
 H365  H     0.035847     -0.373034      0.114974 
 H366  H    -0.022229     -0.313610      0.178594 
 H367  H     0.049361     -0.257505      0.122585 
 N368  N     0.491339      0.482250     -0.181779 
 C369  C    -0.469333      0.400881     -0.209913 
 C370  C     0.402953      0.487375     -0.209008 
 C371  C    -0.460564     -0.441562     -0.208971 
 C372  C     0.402371      0.490273     -0.290731 
 H373  H     0.367166      0.429636     -0.190192 
 H374  H     0.371237     -0.453879     -0.187079 
 C375  C    -0.471531      0.401035     -0.291698 
 H376  H    -0.403032      0.396467     -0.190757 
 H377  H     0.496758      0.343127     -0.188858 
 C378  C    -0.459890     -0.441594     -0.290531 
 H379  H    -0.489125     -0.380130     -0.188909 
 H380  H    -0.394970     -0.444614     -0.188444 
 H381  H    -0.406490      0.393898     -0.312573 
 H382  H     0.491350      0.344725     -0.311924 
 H383  H     0.363842      0.435989     -0.312575 
 H384  H     0.373014     -0.447924     -0.309335 
 H385  H    -0.394173     -0.447318     -0.310067 
 N386  N     0.490129      0.483829     -0.318456 
 H387  H    -0.485916     -0.379195     -0.311107 
 C388  C    -0.258959     -0.168909     -0.465753 
 C389  C    -0.183105     -0.190909     -0.499885 
 C390  C    -0.173258     -0.272995      0.467147 
 C391  C    -0.242108     -0.332002      0.465711 
 C392  C    -0.318015     -0.309974      0.499795 
 C393  C    -0.327931     -0.227735     -0.467481 
 O394  O    -0.095700     -0.292850      0.438582 
 C395  C    -0.073260     -0.384167      0.431049 
 C396  C     0.023362     -0.391203      0.433045 
 C397  C     0.056180     -0.486709      0.429624 
 C398  C     0.152096     -0.495241      0.443916 
 O399  O    -0.405591     -0.207536     -0.439289 
 C400  C    -0.427554     -0.116106     -0.431679 
 C401  C     0.475887     -0.108633     -0.433814 
 C402  C     0.443303     -0.013146     -0.429117 
 C403  C     0.347240     -0.004302     -0.442535 
 H404  H    -0.236270     -0.395562      0.439145 
 H405  H    -0.264698     -0.105420     -0.439061 
 H406  H    -0.401593     -0.091617     -0.381729 
 H407  H    -0.399672     -0.077151     -0.474375 
 H408  H    -0.100879     -0.423145      0.473847 
 H409  H    -0.099232     -0.408930      0.381189 
 H410  H     0.451954     -0.139054     -0.482393 
 H411  H     0.449175     -0.147666     -0.390893 
 H412  H     0.049916     -0.352995      0.389568 
 H413  H     0.047299     -0.359695      0.481183 
 H414  H     0.021427      0.473020      0.467761 
 H415  H     0.041124      0.484991      0.378028 
 H416  H     0.459000      0.014245     -0.377341 
 H417  H     0.477652      0.027712     -0.467102 
 H418  H     0.328043      0.065313     -0.443757 
 H419  H     0.328782     -0.033445     -0.492976 
 H420  H     0.309564     -0.036717     -0.401846 
 H421  H     0.171284      0.435177      0.446142 
 H422  H     0.190295     -0.463665      0.403152 
 H423  H     0.169947     -0.465102      0.494136 
loop_  
_geom_bond_atom_site_label_1  
_geom_bond_atom_site_label_2  
Cu0   Cu1 
Cu0   O4 
Cu0   O7 
Cu0   O10 
Cu0   O13 
Cu0   N82 
Cu1   O2 
Cu1   O5 
Cu1   O8 
Cu1   O11 
Cu1   N276 
O2   C3 
C3   O4 
C3   C29 
O5   C6 
C6   O7 
C6   C85 
O8   C9 
C9   O10 
C9   C180 
O11   C12 
C12   O13 
C12   C124 
Cu14   Cu15 
Cu14   O18 
Cu14   O21 
Cu14   O24 
Cu14   O27 
Cu14   N174 
Cu15   O16 
Cu15   O19 
Cu15   O22 
Cu15   O25 
Cu15   N368 
O16   C17 
C17   O18 
C17   C121 
O19   C20 
C20   O21 
C20   C177 
O22   C23 
C23   O24 
C23   C88 
O25   C26 
C26   O27 
C26   C32 
C28   C29 
C28   C33 
C28   H45 
C29   C30 
C30   C31 
C30   O34 
C31   C32 
C31   H44 
C32   C33 
C33   O39 
O34   C35 
C35   C36 
C35   H48 
C35   H49 
C36   C37 
C36   H52 
C36   H53 
C37   C38 
C37   H54 
C37   H55 
C38   H61 
C38   H62 
C38   H63 
O39   C40 
C40   C41 
C40   H46 
C40   H47 
C41   C42 
C41   H50 
C41   H51 
C42   C43 
C42   H56 
C42   H57 
C43   H58 
C43   H59 
C43   H60 
N64   C65 
N64   C66 
N64   C67 
N64   Cu213 
C65   C71 
C65   H72 
C65   H73 
C66   C68 
C66   H69 
C66   H70 
C67   C74 
C67   H75 
C67   H76 
C68   H79 
C68   H80 
C68   N82 
C71   H77 
C71   H78 
C71   N82 
C74   H81 
C74   N82 
C74   H83 
C84   C85 
C84   C89 
C84   H101 
C85   C86 
C86   C87 
C86   O90 
C87   C88 
C87   H100 
C88   C89 
C89   O95 
O90   C91 
C91   C92 
C91   H104 
C91   H105 
C92   C93 
C92   H108 
C92   H109 
C93   C94 
C93   H110 
C93   H111 
C94   H117 
C94   H118 
C94   H119 
O95   C96 
C96   C97 
C96   H102 
C96   H103 
C97   C98 
C97   H106 
C97   H107 
C98   C99 
C98   H112 
C98   H113 
C99   H114 
C99   H115 
C99   H116 
C120   C121 
C120   C125 
C120   H137 
C121   C122 
C122   C123 
C122   O126 
C123   C124 
C123   H136 
C124   C125 
C125   O131 
O126   C127 
C127   C128 
C127   H140 
C127   H141 
C128   C129 
C128   H144 
C128   H145 
C129   C130 
C129   H146 
C129   H147 
C130   H153 
C130   H154 
C130   H155 
O131   C132 
C132   C133 
C132   H138 
C132   H139 
C133   C134 
C133   H142 
C133   H143 
C134   C135 
C134   H148 
C134   H149 
C135   H150 
C135   H151 
C135   H152 
N156   C157 
N156   C158 
N156   C159 
N156   Cu227 
C157   C163 
C157   H164 
C157   H165 
C158   C160 
C158   H161 
C158   H162 
C159   C166 
C159   H167 
C159   H168 
C160   H171 
C160   H172 
C160   N174 
C163   H169 
C163   H170 
C163   N174 
C166   H173 
C166   N174 
C166   H175 
C176   C177 
C176   C181 
C176   H193 
C177   C178 
C178   C179 
C178   O182 
C179   C180 
C179   H192 
C180   C181 
C181   O187 
O182   C183 
C183   C184 
C183   H196 
C183   H197 
C184   C185 
C184   H200 
C184   H201 
C185   C186 
C185   H202 
C185   H203 
C186   H209 
C186   H210 
C186   H211 
O187   C188 
C188   C189 
C188   H194 
C188   H195 
C189   C190 
C189   H198 
C189   H199 
C190   C191 
C190   H204 
C190   H205 
C191   H206 
C191   H207 
C191   H208 
Cu212   Cu213 
Cu212   O216 
Cu212   O219 
Cu212   O222 
Cu212   O225 
Cu212   N294 
Cu213   O214 
Cu213   O217 
Cu213   O220 
Cu213   O223 
O214   C215 
C215   O216 
C215   C241 
O217   C218 
C218   O219 
C218   C300 
O220   C221 
C221   O222 
C221   C389 
O223   C224 
C224   O225 
C224   C333 
Cu226   Cu227 
Cu226   O230 
Cu226   O233 
Cu226   O236 
Cu226   O239 
Cu226   N386 
Cu227   O228 
Cu227   O231 
Cu227   O234 
Cu227   O237 
O228   C229 
C229   O230 
C229   C336 
O231   C232 
C232   O233 
C232   C392 
O234   C235 
C235   O236 
C235   C297 
O237   C238 
C238   O239 
C238   C244 
C240   C241 
C240   C245 
C240   H257 
C241   C242 
C242   C243 
C242   O246 
C243   C244 
C243   H256 
C244   C245 
C245   O251 
O246   C247 
C247   C248 
C247   H260 
C247   H261 
C248   C249 
C248   H264 
C248   H265 
C249   C250 
C249   H266 
C249   H267 
C250   H273 
C250   H274 
C250   H275 
O251   C252 
C252   C253 
C252   H258 
C252   H259 
C253   C254 
C253   H262 
C253   H263 
C254   C255 
C254   H268 
C254   H269 
C255   H270 
C255   H271 
C255   H272 
N276   C277 
N276   C278 
N276   C279 
C277   C283 
C277   H284 
C277   H285 
C278   C280 
C278   H281 
C278   H282 
C279   C286 
C279   H287 
C279   H288 
C280   H291 
C280   H292 
C280   N294 
C283   H289 
C283   H290 
C283   N294 
C286   H293 
C286   N294 
C286   H295 
C296   C297 
C296   C301 
C296   H313 
C297   C298 
C298   C299 
C298   O302 
C299   C300 
C299   H312 
C300   C301 
C301   O307 
O302   C303 
C303   C304 
C303   H316 
C303   H317 
C304   C305 
C304   H320 
C304   H321 
C305   C306 
C305   H322 
C305   H323 
C306   H329 
C306   H330 
C306   H331 
O307   C308 
C308   C309 
C308   H314 
C308   H315 
C309   C310 
C309   H318 
C309   H319 
C310   C311 
C310   H324 
C310   H325 
C311   H326 
C311   H327 
C311   H328 
C332   C333 
C332   C337 
C332   H349 
C333   C334 
C334   C335 
C334   O338 
C335   C336 
C335   H348 
C336   C337 
C337   O343 
O338   C339 
C339   C340 
C339   H352 
C339   H353 
C340   C341 
C340   H356 
C340   H357 
C341   C342 
C341   H358 
C341   H359 
C342   H365 
C342   H366 
C342   H367 
O343   C344 
C344   C345 
C344   H350 
C344   H351 
C345   C346 
C345   H354 
C345   H355 
C346   C347 
C346   H360 
C346   H361 
C347   H362 
C347   H363 
C347   H364 
N368   C369 
N368   C370 
N368   C371 
C369   C375 
C369   H376 
C369   H377 
C370   C372 
C370   H373 
C370   H374 
C371   C378 
C371   H379 
C371   H380 
C372   H383 
C372   H384 
C372   N386 
C375   H381 
C375   H382 
C375   N386 
C378   H385 
C378   N386 
C378   H387 
C388   C389 
C388   C393 
C388   H405 
C389   C390 
C390   C391 
C390   O394 
C391   C392 
C391   H404 
C392   C393 
C393   O399 
O394   C395 
C395   C396 
C395   H408 
C395   H409 
C396   C397 
C396   H412 
C396   H413 
C397   C398 
C397   H414 
C397   H415 
C398   H421 
C398   H422 
C398   H423 
O399   C400 
C400   C401 
C400   H406 
C400   H407 
C401   C402 
C401   H410 
C401   H411 
C402   C403 
C402   H416 
C402   H417 
C403   H418 
C403   H419 
C403   H420 
  
#END  
