data_
_symmetry_cell_setting           triclinic 
_symmetry_space_group_name_H-M   'P 1' 
_symmetry_Int_Tables_number      1 
loop_ 
_symmetry_equiv_pos_site_id 
_symmetry_equiv_pos_as_xyz 
1 x,y,z 
_cell_length_a             14.252270        
_cell_length_b             16.461574        
_cell_length_c             19.188620        
_cell_angle_alpha          89.118231        
_cell_angle_beta           89.299350        
_cell_angle_gamma          88.743446        
loop_  
_atom_site_label   
_atom_site_type_symbol  
_atom_site_fract_x  
_atom_site_fract_y  
_atom_site_fract_z 
 Cu0  Cu     0.003789      0.015039      0.065230 
 Cu1  Cu    -0.018049      0.028273     -0.072780 
 O2  O    -0.109261      0.108480     -0.049684 
 C3  C    -0.141493      0.122214      0.011141 
 O4  O    -0.114965      0.086189      0.067872 
 O5  O     0.079676      0.115742     -0.080891 
 C6  C     0.105944      0.141693     -0.021376 
 O7  O     0.073724      0.111284      0.034687 
 O8  O    -0.116530     -0.066719     -0.054120 
 C9  C    -0.121348     -0.097287      0.006818 
 O10  O    -0.073574     -0.078798      0.060009 
 O11  O     0.099265     -0.053332     -0.069314 
 C12  C     0.137136     -0.079591     -0.015340 
 O13  O     0.113977     -0.051614      0.044558 
 Cu14  Cu     0.488764     -0.482228      0.083572 
 Cu15  Cu     0.489138     -0.486738     -0.051654 
 O16  O     0.374255     -0.415636     -0.040083 
 C17  C     0.365843     -0.371686      0.014975 
 O18  O     0.398677     -0.388135      0.076362 
 O19  O    -0.436201     -0.384984     -0.044503 
 C20  C    -0.398246     -0.365880      0.012381 
 O21  O    -0.406247     -0.404450      0.071166 
 O22  O     0.415268      0.424803     -0.037044 
 C23  C     0.378241      0.400022      0.017430 
 O24  O     0.392503      0.438079      0.074633 
 O25  O    -0.398720      0.437282     -0.045770 
 C26  C    -0.381880      0.406596      0.012628 
 O27  O    -0.422795      0.429479      0.069052 
 C28  C    -0.182303      0.261903     -0.029924 
 C29  C    -0.208051      0.192285      0.014539 
 C30  C    -0.292847      0.190801      0.054915 
 C31  C    -0.346941      0.266310      0.054919 
 C32  C    -0.320141      0.330586      0.010341 
 C33  C    -0.235811      0.332821     -0.027802 
 O34  O    -0.316971      0.123425      0.089091 
 C35  C    -0.343090      0.052144      0.048010 
 C36  C    -0.450404      0.062550      0.030228 
 C37  C     0.491026      0.041281      0.092003 
 C38  C     0.384771      0.054215      0.075162 
 O39  O    -0.207255      0.409504     -0.054907 
 C40  C    -0.110912      0.422078     -0.063200 
 C41  C    -0.099046      0.450098     -0.140052 
 C42  C    -0.000154      0.473841     -0.156283 
 C43  C     0.073940      0.401722     -0.136142 
 H44  H    -0.409825      0.271597      0.080313 
 H45  H    -0.115770      0.255011     -0.057070 
 H46  H    -0.099140      0.468531     -0.022069 
 H47  H    -0.063301      0.372491     -0.049872 
 H48  H    -0.313967      0.040021     -0.004286 
 H49  H    -0.326012     -0.001064      0.084862 
 H50  H    -0.124855      0.402662     -0.173896 
 H51  H    -0.150099     -0.498089     -0.148084 
 H52  H    -0.465490      0.119435      0.006065 
 H53  H    -0.463985      0.019047     -0.009525 
 H54  H    -0.499839     -0.022016      0.103147 
 H55  H    -0.487954      0.074066      0.138973 
 H56  H     0.007860      0.488956     -0.212004 
 H57  H     0.018850     -0.469438     -0.130805 
 H58  H     0.144502      0.419063     -0.154141 
 H59  H     0.081168      0.396786     -0.079624 
 H60  H     0.056652      0.341915     -0.160104 
 H61  H     0.336296      0.038057      0.118176 
 H62  H     0.370875      0.117179      0.064874 
 H63  H     0.364290      0.012836      0.034520 
 N64  N    -0.034660      0.001022      0.311740 
 C65  C    -0.127445     -0.017076      0.284343 
 C66  C     0.001337      0.079636      0.283978 
 C67  C     0.041113     -0.059144      0.290558 
 C68  C    -0.000546      0.077019      0.203292 
 H69  H    -0.051881      0.127824      0.305637 
 H70  H     0.069744      0.096788      0.299959 
 C71  C    -0.119472     -0.022579      0.201864 
 H72  H    -0.146933     -0.077212      0.302921 
 H73  H    -0.179968      0.030732      0.306015 
 C74  C     0.044311     -0.062056      0.209099 
 H75  H     0.111390     -0.037044      0.308835 
 H76  H     0.024494     -0.118175      0.314818 
 H77  H    -0.140419     -0.082883      0.183449 
 H78  H    -0.172177      0.017865      0.173874 
 H79  H    -0.048473      0.128798      0.181514 
 H80  H     0.070818      0.088795      0.180072 
 H81  H     0.021362     -0.122828      0.189793 
 N82  N    -0.022988     -0.004440      0.178323 
 H83  H     0.116674     -0.054129      0.190140 
 C84  C     0.284350      0.305877     -0.054130 
 C85  C     0.308222      0.328432      0.014054 
 C86  C     0.262889      0.287079      0.069698 
 C87  C     0.198507      0.229037      0.056616 
 C88  C     0.176148      0.204239     -0.012202 
 C89  C     0.225097      0.243022     -0.070190 
 O90  O     0.277295      0.317769      0.136151 
 C91  C     0.220260      0.294150      0.195277 
 C92  C     0.255150      0.213012      0.220751 
 C93  C     0.360921      0.206255      0.247908 
 C94  C     0.394032      0.257963      0.308765 
 O95  O     0.214618      0.224846     -0.137852 
 C96  C     0.282340      0.232180     -0.196184 
 C97  C     0.361581      0.171506     -0.185473 
 C98  C     0.323546      0.084136     -0.179744 
 C99  C     0.400601      0.017324     -0.177836 
 H100  H     0.154494      0.209491      0.100581 
 H101  H     0.313818      0.338674     -0.100568 
 H102  H     0.255191      0.216671     -0.248611 
 H103  H     0.308638      0.291934     -0.203236 
 H104  H     0.234421      0.342066      0.236024 
 H105  H     0.148069      0.298551      0.181506 
 H106  H     0.408768      0.176686     -0.231639 
 H107  H     0.404140      0.180254     -0.135402 
 H108  H     0.209740      0.196766      0.266031 
 H109  H     0.243313      0.163004      0.184203 
 H110  H     0.367268      0.142066      0.263994 
 H111  H     0.415621      0.211554      0.204959 
 H112  H     0.283022      0.080746     -0.131879 
 H113  H     0.273833      0.076115     -0.221683 
 H114  H     0.368583     -0.044235     -0.166812 
 H115  H     0.443243      0.012094     -0.229147 
 H116  H     0.457706      0.025443     -0.138415 
 H117  H     0.405164      0.319370      0.297126 
 H118  H     0.343220      0.249092      0.351970 
 H119  H     0.466414      0.237261      0.323785 
 C120  C     0.247023     -0.169215      0.047744 
 C121  C     0.203064     -0.150713     -0.015376 
 C122  C     0.215253     -0.203694     -0.073453 
 C123  C     0.276229     -0.272794     -0.063038 
 C124  C     0.314772     -0.291738      0.000650 
 C125  C     0.307260     -0.236417      0.053910 
 O126  O     0.160276     -0.190905     -0.128511 
 C127  C     0.145017     -0.260455     -0.176643 
 C128  C     0.222211     -0.260171     -0.232728 
 C129  C     0.211500     -0.181002     -0.269700 
 C130  C     0.286142     -0.167357     -0.324029 
 O131  O     0.365160     -0.248827      0.108500 
 C132  C     0.366941     -0.188937      0.159979 
 C133  C     0.277407     -0.202278      0.207098 
 C134  C     0.277247     -0.274342      0.262534 
 C135  C     0.197117     -0.272637      0.312975 
 H136  H     0.291870     -0.308914     -0.110101 
 H137  H     0.239129     -0.119558      0.083109 
 H138  H     0.435867     -0.198688      0.190570 
 H139  H     0.373394     -0.131596      0.131076 
 H140  H     0.142601     -0.316438     -0.146187 
 H141  H     0.072337     -0.250530     -0.196794 
 H142  H     0.268056     -0.145579      0.238654 
 H143  H     0.209047     -0.207401      0.177500 
 H144  H     0.296442     -0.254990     -0.211264 
 H145  H     0.210482     -0.308581     -0.270247 
 H146  H     0.139588     -0.175882     -0.286828 
 H147  H     0.213690     -0.128837     -0.233567 
 H148  H     0.277063     -0.333020      0.237394 
 H149  H     0.342793     -0.276354      0.292558 
 H150  H     0.196920     -0.229381      0.352686 
 H151  H     0.132158     -0.267698      0.283451 
 H152  H     0.195985     -0.335189      0.339032 
 H153  H     0.361125     -0.162358     -0.307036 
 H154  H     0.278764     -0.218904     -0.361808 
 H155  H     0.271151     -0.114228     -0.355976 
 N156  N     0.495680     -0.477183      0.330833 
 C157  C    -0.441795      0.456274      0.304821 
 C158  C     0.397133     -0.487177      0.305990 
 C159  C    -0.469982     -0.398462      0.301301 
 C160  C     0.400673     -0.489568      0.224962 
 H161  H     0.370946      0.457681      0.328983 
 H162  H     0.350242     -0.436014      0.332136 
 C163  C    -0.435853      0.461484      0.224420 
 H164  H    -0.372661      0.458353      0.330666 
 H165  H    -0.470648      0.398089      0.318818 
 C166  C    -0.468880     -0.396386      0.218924 
 H167  H     0.485046     -0.344052      0.318558 
 H168  H    -0.397635     -0.387756      0.324677 
 H169  H    -0.365560      0.478916      0.200750 
 H170  H    -0.459492      0.401584      0.200867 
 H171  H     0.370633      0.455295      0.204892 
 H172  H     0.349399     -0.444178      0.208091 
 H173  H    -0.399739     -0.381793      0.195655 
 N174  N    -0.499522     -0.474337      0.193324 
 H175  H     0.475474     -0.355343      0.202219 
 C176  C    -0.260584     -0.289930      0.061835 
 C177  C    -0.332993     -0.291108      0.011816 
 C178  C    -0.334861     -0.227161     -0.037258 
 C179  C    -0.271025     -0.159569     -0.034860 
 C180  C    -0.195978     -0.162270      0.014709 
 C181  C    -0.188385     -0.228947      0.061363 
 O182  O    -0.404414     -0.228026     -0.084326 
 C183  C    -0.440434     -0.149011     -0.103289 
 C184  C    -0.396048     -0.129538     -0.173828 
 C185  C    -0.420186     -0.189187     -0.233187 
 C186  C    -0.377794     -0.167745     -0.305603 
 O187  O    -0.119076     -0.234787      0.108247 
 C188  C    -0.023030     -0.253172      0.083342 
 C189  C    -0.011254     -0.340088      0.057984 
 C190  C     0.088564     -0.377309      0.062694 
 C191  C     0.123907     -0.398170      0.135441 
 H192  H    -0.281208     -0.108740     -0.069059 
 H193  H    -0.244780     -0.336762      0.100923 
 H194  H    -0.001848     -0.213397      0.044392 
 H195  H     0.018588     -0.242131      0.128792 
 H196  H     0.477536     -0.145480     -0.108120 
 H197  H    -0.423772     -0.100547     -0.067088 
 H198  H    -0.058949     -0.380037      0.088176 
 H199  H    -0.037682     -0.343009      0.002379 
 H200  H    -0.432174     -0.070335     -0.185316 
 H201  H    -0.322702     -0.116131     -0.173651 
 H202  H    -0.394796     -0.250441     -0.216992 
 H203  H    -0.495538     -0.190789     -0.234334 
 H204  H     0.096534     -0.428933      0.029781 
 H205  H     0.137008     -0.330586      0.038381 
 H206  H     0.128225     -0.342486      0.163993 
 H207  H     0.067738     -0.439683      0.153376 
 H208  H     0.190907     -0.427736      0.137114 
 H209  H    -0.395595     -0.211056     -0.346495 
 H210  H    -0.399673     -0.104483     -0.323111 
 H211  H    -0.299775     -0.171056     -0.302053 
 Cu212  Cu    -0.015008     -0.000903     -0.437279 
 Cu213  Cu    -0.016585     -0.002011      0.425804 
 O214  O    -0.118305      0.080883      0.432333 
 C215  C    -0.130131      0.117616      0.490243 
 O216  O    -0.095377      0.095725     -0.450597 
 O217  O     0.078512      0.085665      0.433190 
 C218  C     0.112193      0.107266      0.491845 
 O219  O     0.096785      0.072956     -0.448720 
 O220  O    -0.118560     -0.082800      0.435437 
 C221  C    -0.145861     -0.106961      0.493125 
 O222  O    -0.127412     -0.076914     -0.445905 
 O223  O     0.081222     -0.089516      0.445526 
 C224  C     0.103932     -0.120260     -0.493580 
 O225  O     0.065090     -0.101331     -0.436487 
 Cu226  Cu     0.482426      0.497380     -0.422741 
 Cu227  Cu     0.494646     -0.493615      0.444336 
 O228  O     0.398567     -0.397364      0.451881 
 C229  C     0.352302     -0.391428     -0.491253 
 O230  O     0.360663     -0.441516     -0.439489 
 O231  O    -0.406675     -0.405895      0.456911 
 C232  C    -0.396376     -0.373869     -0.484240 
 O233  O    -0.441199     -0.391278     -0.427052 
 O234  O     0.402444      0.416536      0.447637 
 C235  C     0.384824      0.375916     -0.498529 
 O236  O     0.415917      0.395905     -0.437842 
 O237  O    -0.411884      0.421826      0.453386 
 C238  C    -0.375524      0.397311     -0.488250 
 O239  O    -0.395344      0.426543     -0.428376 
 C240  C    -0.227900      0.211454     -0.435361 
 C241  C    -0.202447      0.185134      0.496182 
 C242  C    -0.243135      0.224155      0.436548 
 C243  C    -0.299195      0.295179      0.443591 
 C244  C    -0.317046      0.321670     -0.488971 
 C245  C    -0.280965      0.281875     -0.429481 
 O246  O    -0.225898      0.195085      0.370627 
 C247  C    -0.296292      0.218187      0.318792 
 C248  C    -0.264298      0.287542      0.270067 
 C249  C    -0.177998      0.269335      0.224512 
 C250  C    -0.156431      0.340992      0.176169 
 O251  O    -0.300839      0.318811     -0.366343 
 C252  C    -0.251800      0.287734     -0.305806 
 C253  C    -0.307359      0.222527     -0.266692 
 C254  C    -0.299375      0.215596     -0.186932 
 C255  C    -0.357929      0.149439     -0.150742 
 H256  H    -0.327726      0.331263      0.397422 
 H257  H    -0.199610      0.173694     -0.391754 
 H258  H    -0.180201      0.268068     -0.318816 
 H259  H    -0.240113      0.342776     -0.274480 
 H260  H    -0.303952      0.162003      0.290010 
 H261  H    -0.366915      0.231082      0.334146 
 H262  H    -0.384713      0.233118     -0.281292 
 H263  H    -0.288755      0.160540     -0.284477 
 H264  H    -0.322196      0.297776      0.234753 
 H265  H    -0.255175      0.343181      0.295232 
 H266  H    -0.120107      0.245364      0.254254 
 H267  H    -0.200046      0.217578      0.193062 
 H268  H    -0.228351      0.203046     -0.172541 
 H269  H    -0.317316      0.273046     -0.157748 
 H270  H    -0.348839      0.091315     -0.177128 
 H271  H    -0.336317      0.139289     -0.096836 
 H272  H    -0.430920      0.165745     -0.149809 
 H273  H    -0.156494      0.399013      0.204057 
 H274  H    -0.092223      0.331384      0.138304 
 H275  H    -0.217298      0.349147      0.139254 
 N276  N    -0.020899      0.019840     -0.186301 
 C277  C    -0.040533     -0.062689     -0.204409 
 C278  C    -0.104480      0.062628     -0.217935 
 C279  C     0.066702      0.049461     -0.214474 
 C280  C    -0.095042      0.064683     -0.298253 
 H281  H    -0.164953      0.030745     -0.194089 
 H282  H    -0.105478      0.120493     -0.192687 
 C283  C    -0.054114     -0.070751     -0.284086 
 H284  H     0.018224     -0.108541     -0.184706 
 H285  H    -0.102633     -0.085590     -0.183414 
 C286  C     0.065167      0.032408     -0.291441 
 H287  H     0.072846      0.114412     -0.202173 
 H288  H     0.126458      0.012551     -0.190763 
 H289  H    -0.017462     -0.123814     -0.308887 
 H290  H    -0.130688     -0.081006     -0.297972 
 H291  H    -0.156707      0.053789     -0.332400 
 H292  H    -0.063901      0.125737     -0.313468 
 H293  H     0.113142     -0.020778     -0.305785 
 N294  N    -0.026716      0.004542     -0.316169 
 H295  H     0.094369      0.089515     -0.316252 
 C296  C     0.258570      0.174946     -0.456612 
 C297  C     0.187257      0.177840      0.489709 
 C298  C     0.193021      0.235434      0.436585 
 C299  C     0.261664      0.298064      0.439582 
 C300  C     0.323533      0.298509      0.496057 
 C301  C     0.329987      0.233149     -0.455809 
 O302  O     0.133350      0.234203      0.384957 
 C303  C     0.041677      0.265377      0.395831 
 C304  C     0.044246      0.358911      0.383761 
 C305  C    -0.050930      0.402803      0.395254 
 C306  C    -0.098128      0.394736      0.466994 
 O307  O     0.393340      0.235106     -0.400735 
 C308  C     0.486341      0.208186     -0.415178 
 C309  C     0.487775      0.117694     -0.404858 
 C310  C    -0.410580      0.077492     -0.397998 
 C311  C    -0.380843      0.031724     -0.463570 
 H312  H     0.261355      0.342999      0.398840 
 H313  H     0.248095      0.137184     -0.411556 
 H314  H    -0.486237      0.220716     -0.469622 
 H315  H    -0.468529      0.236006     -0.377310 
 H316  H    -0.013245      0.234639      0.366226 
 H317  H     0.015221      0.246113      0.450437 
 H318  H     0.449244      0.095967     -0.358420 
 H319  H     0.453980      0.091343     -0.446802 
 H320  H     0.088825      0.380032      0.430332 
 H321  H     0.074034      0.381850      0.335564 
 H322  H    -0.032883      0.469568      0.379183 
 H323  H    -0.105373      0.389529      0.354165 
 H324  H    -0.360171      0.131306     -0.395981 
 H325  H    -0.402124      0.033472     -0.356758 
 H326  H    -0.304481      0.027955     -0.457946 
 H327  H    -0.420654     -0.027428     -0.470821 
 H328  H    -0.393027      0.064172      0.486079 
 H329  H    -0.156389      0.434984      0.470932 
 H330  H    -0.120387      0.333408      0.483106 
 H331  H    -0.055084      0.417140     -0.490205 
 C332  C     0.323049     -0.249821      0.481529 
 C333  C     0.288845     -0.317888     -0.484649 
 C334  C     0.203433     -0.326292     -0.452238 
 C335  C     0.142142     -0.262009     -0.459953 
 C336  C     0.172579     -0.190487     -0.494384 
 C337  C     0.261635     -0.184437      0.473367 
 O338  O     0.182702     -0.401792     -0.421079 
 C339  C     0.102402     -0.409542     -0.375845 
 C340  C     0.090408      0.498801     -0.366844 
 C341  C     0.162250      0.447672     -0.325926 
 C342  C     0.134443      0.359490     -0.326354 
 O343  O     0.286190     -0.114684      0.440048 
 C344  C     0.382647     -0.104774      0.407349 
 C345  C     0.376862     -0.026814      0.363817 
 C346  C     0.460816     -0.027545      0.306698 
 C347  C    -0.442737     -0.007249      0.336935 
 H348  H     0.067123     -0.276177     -0.451436 
 H349  H     0.395237     -0.247548      0.463227 
 H350  H     0.432781     -0.100240      0.449291 
 H351  H     0.392552     -0.153599      0.371997 
 H352  H     0.117081     -0.380315     -0.326500 
 H353  H     0.037456     -0.382122     -0.397685 
 H354  H     0.309815     -0.030066      0.337324 
 H355  H     0.372617      0.027742      0.393883 
 H356  H     0.023826      0.484330     -0.340735 
 H357  H     0.078495      0.475153     -0.418181 
 H358  H     0.226764      0.454988     -0.350951 
 H359  H     0.157545      0.468005     -0.271378 
 H360  H     0.460520     -0.082562      0.278945 
 H361  H     0.451904      0.014085      0.264532 
 H362  H    -0.389006     -0.010589      0.296860 
 H363  H    -0.445880      0.056391      0.357737 
 H364  H    -0.427904     -0.053071      0.379834 
 H365  H     0.192729      0.318850     -0.318644 
 H366  H     0.074213      0.344780     -0.292087 
 H367  H     0.113851      0.352728     -0.381709 
 N368  N    -0.478347      0.499948     -0.169940 
 C369  C     0.484018      0.419624     -0.189413 
 C370  C     0.462369     -0.439146     -0.204592 
 C371  C    -0.385718      0.499244     -0.202225 
 C372  C     0.459545     -0.447977     -0.285087 
 H373  H     0.389051     -0.450490     -0.182991 
 H374  H     0.482867     -0.378622     -0.189257 
 C375  C     0.465215      0.412830     -0.265707 
 H376  H    -0.461683      0.377172     -0.174886 
 H377  H     0.422259      0.400650     -0.159734 
 C378  C    -0.390760      0.482941     -0.285499 
 H379  H    -0.359469     -0.438147     -0.193354 
 H380  H    -0.342829      0.459476     -0.167631 
 H381  H     0.496213      0.352360     -0.283268 
 H382  H     0.388366      0.420369     -0.269929 
 H383  H     0.384693     -0.445220     -0.302767 
 H384  H    -0.499321     -0.396200     -0.302632 
 H385  H    -0.350568      0.428814     -0.297482 
 N386  N    -0.490810      0.476751     -0.305957 
 H387  H    -0.356088     -0.470801     -0.316314 
 C388  C    -0.204431     -0.226619     -0.443179 
 C389  C    -0.206586     -0.179150      0.495342 
 C390  C    -0.268520     -0.196042      0.439919 
 C391  C    -0.340121     -0.254886      0.453461 
 C392  C    -0.334129     -0.302941     -0.487374 
 C393  C    -0.266158     -0.292364     -0.433901 
 O394  O    -0.273526     -0.158566      0.375229 
 C395  C    -0.314678     -0.195075      0.311676 
 C396  C    -0.239679     -0.245887      0.272219 
 C397  C    -0.173997     -0.300504      0.316508 
 C398  C    -0.117495     -0.358424      0.271486 
 O399  O    -0.267765     -0.342690     -0.374792 
 C400  C    -0.172270     -0.371743     -0.355731 
 C401  C    -0.135034     -0.322717     -0.295220 
 C402  C    -0.196237     -0.333993     -0.230179 
 C403  C    -0.151028     -0.297967     -0.161292 
 H404  H    -0.397363     -0.262749      0.417311 
 H405  H    -0.148858     -0.214234     -0.407839 
 H406  H    -0.184353     -0.433820     -0.341605 
 H407  H    -0.125379     -0.372891     -0.400849 
 H408  H    -0.371208     -0.233816      0.323326 
 H409  H    -0.340207     -0.141072      0.277363 
 H410  H    -0.057201     -0.335095     -0.289340 
 H411  H    -0.137499     -0.257885     -0.306557 
 H412  H    -0.274546     -0.285627      0.237157 
 H413  H    -0.194887     -0.205831      0.240073 
 H414  H    -0.138698     -0.262207      0.351392 
 H415  H    -0.224194     -0.337168      0.353395 
 H416  H    -0.265849     -0.309420     -0.240594 
 H417  H    -0.208588     -0.399552     -0.222131 
 H418  H    -0.149670     -0.231376     -0.167240 
 H419  H    -0.185157     -0.318852     -0.113354 
 H420  H    -0.077514     -0.324150     -0.161261 
 H421  H    -0.158517     -0.393557      0.231542 
 H422  H    -0.053478     -0.340135      0.246375 
 H423  H    -0.090599     -0.403507      0.307881 
loop_  
_geom_bond_atom_site_label_1  
_geom_bond_atom_site_label_2  
Cu0   Cu1 
Cu0   O4 
Cu0   O7 
Cu0   O10 
Cu0   O13 
Cu0   N82 
Cu1   O2 
Cu1   O5 
Cu1   O8 
Cu1   O11 
Cu1   N276 
O2   C3 
C3   O4 
C3   C29 
O5   C6 
C6   O7 
C6   C88 
O8   C9 
C9   O10 
C9   C180 
O11   C12 
C12   O13 
C12   C121 
Cu14   Cu15 
Cu14   O18 
Cu14   O21 
Cu14   O24 
Cu14   O27 
Cu14   N174 
Cu15   O16 
Cu15   O19 
Cu15   O22 
Cu15   O25 
Cu15   N368 
O16   C17 
C17   O18 
C17   C124 
O19   C20 
C20   O21 
C20   C177 
O22   C23 
C23   O24 
C23   C85 
O25   C26 
C26   O27 
C26   C32 
C28   C29 
C28   C33 
C28   H45 
C29   C30 
C30   C31 
C30   O34 
C31   C32 
C31   H44 
C32   C33 
C33   O39 
O34   C35 
C35   C36 
C35   H48 
C35   H49 
C36   C37 
C36   H52 
C36   H53 
C37   C38 
C37   H54 
C37   H55 
C38   H61 
C38   H62 
C38   H63 
O39   C40 
C40   C41 
C40   H46 
C40   H47 
C41   C42 
C41   H50 
C41   H51 
C42   C43 
C42   H56 
C42   H57 
C43   H58 
C43   H59 
C43   H60 
N64   C65 
N64   C66 
N64   C67 
N64   Cu213 
C65   C71 
C65   H72 
C65   H73 
C66   C68 
C66   H69 
C66   H70 
C67   C74 
C67   H75 
C67   H76 
C68   H79 
C68   H80 
C68   N82 
C71   H77 
C71   H78 
C71   N82 
C74   H81 
C74   N82 
C74   H83 
C84   C85 
C84   C89 
C84   H101 
C85   C86 
C86   C87 
C86   O90 
C87   C88 
C87   H100 
C88   C89 
C89   O95 
O90   C91 
C91   C92 
C91   H104 
C91   H105 
C92   C93 
C92   H108 
C92   H109 
C93   C94 
C93   H110 
C93   H111 
C94   H117 
C94   H118 
C94   H119 
O95   C96 
C96   C97 
C96   H102 
C96   H103 
C97   C98 
C97   H106 
C97   H107 
C98   C99 
C98   H112 
C98   H113 
C99   H114 
C99   H115 
C99   H116 
C120   C121 
C120   C125 
C120   H137 
C121   C122 
C122   C123 
C122   O126 
C123   C124 
C123   H136 
C124   C125 
C125   O131 
O126   C127 
C127   C128 
C127   H140 
C127   H141 
C128   C129 
C128   H144 
C128   H145 
C129   C130 
C129   H146 
C129   H147 
C130   H153 
C130   H154 
C130   H155 
O131   C132 
C132   C133 
C132   H138 
C132   H139 
C133   C134 
C133   H142 
C133   H143 
C134   C135 
C134   H148 
C134   H149 
C135   H150 
C135   H151 
C135   H152 
N156   C157 
N156   C158 
N156   C159 
N156   Cu227 
C157   C163 
C157   H164 
C157   H165 
C158   C160 
C158   H161 
C158   H162 
C159   C166 
C159   H167 
C159   H168 
C160   H171 
C160   H172 
C160   N174 
C163   H169 
C163   H170 
C163   N174 
C166   H173 
C166   N174 
C166   H175 
C176   C177 
C176   C181 
C176   H193 
C177   C178 
C178   C179 
C178   O182 
C179   C180 
C179   H192 
C180   C181 
C181   O187 
O182   C183 
C183   C184 
C183   H196 
C183   H197 
C184   C185 
C184   H200 
C184   H201 
C185   C186 
C185   H202 
C185   H203 
C186   H209 
C186   H210 
C186   H211 
O187   C188 
C188   C189 
C188   H194 
C188   H195 
C189   C190 
C189   H198 
C189   H199 
C190   C191 
C190   H204 
C190   H205 
C191   H206 
C191   H207 
C191   H208 
Cu212   Cu213 
Cu212   O216 
Cu212   O219 
Cu212   O222 
Cu212   O225 
Cu212   N294 
Cu213   O214 
Cu213   O217 
Cu213   O220 
Cu213   O223 
O214   C215 
C215   O216 
C215   C241 
O217   C218 
C218   O219 
C218   C297 
O220   C221 
C221   O222 
C221   C389 
O223   C224 
C224   O225 
C224   C336 
Cu226   Cu227 
Cu226   O230 
Cu226   O233 
Cu226   O236 
Cu226   O239 
Cu226   N386 
Cu227   O228 
Cu227   O231 
Cu227   O234 
Cu227   O237 
O228   C229 
C229   O230 
C229   C333 
O231   C232 
C232   O233 
C232   C392 
O234   C235 
C235   O236 
C235   C300 
O237   C238 
C238   O239 
C238   C244 
C240   C241 
C240   C245 
C240   H257 
C241   C242 
C242   C243 
C242   O246 
C243   C244 
C243   H256 
C244   C245 
C245   O251 
O246   C247 
C247   C248 
C247   H260 
C247   H261 
C248   C249 
C248   H264 
C248   H265 
C249   C250 
C249   H266 
C249   H267 
C250   H273 
C250   H274 
C250   H275 
O251   C252 
C252   C253 
C252   H258 
C252   H259 
C253   C254 
C253   H262 
C253   H263 
C254   C255 
C254   H268 
C254   H269 
C255   H270 
C255   H271 
C255   H272 
N276   C277 
N276   C278 
N276   C279 
C277   C283 
C277   H284 
C277   H285 
C278   C280 
C278   H281 
C278   H282 
C279   C286 
C279   H287 
C279   H288 
C280   H291 
C280   H292 
C280   N294 
C283   H289 
C283   H290 
C283   N294 
C286   H293 
C286   N294 
C286   H295 
C296   C297 
C296   C301 
C296   H313 
C297   C298 
C298   C299 
C298   O302 
C299   C300 
C299   H312 
C300   C301 
C301   O307 
O302   C303 
C303   C304 
C303   H316 
C303   H317 
C304   C305 
C304   H320 
C304   H321 
C305   C306 
C305   H322 
C305   H323 
C306   H329 
C306   H330 
C306   H331 
O307   C308 
C308   C309 
C308   H314 
C308   H315 
C309   C310 
C309   H318 
C309   H319 
C310   C311 
C310   H324 
C310   H325 
C311   H326 
C311   H327 
C311   H328 
C332   C333 
C332   C337 
C332   H349 
C333   C334 
C334   C335 
C334   O338 
C335   C336 
C335   H348 
C336   C337 
C337   O343 
O338   C339 
C339   C340 
C339   H352 
C339   H353 
C340   C341 
C340   H356 
C340   H357 
C341   C342 
C341   H358 
C341   H359 
C342   H365 
C342   H366 
C342   H367 
O343   C344 
C344   C345 
C344   H350 
C344   H351 
C345   C346 
C345   H354 
C345   H355 
C346   C347 
C346   H360 
C346   H361 
C347   H362 
C347   H363 
C347   H364 
N368   C369 
N368   C370 
N368   C371 
C369   C375 
C369   H376 
C369   H377 
C370   C372 
C370   H373 
C370   H374 
C371   C378 
C371   H379 
C371   H380 
C372   H383 
C372   H384 
C372   N386 
C375   H381 
C375   H382 
C375   N386 
C378   H385 
C378   N386 
C378   H387 
C388   C389 
C388   C393 
C388   H405 
C389   C390 
C390   C391 
C390   O394 
C391   C392 
C391   H404 
C392   C393 
C393   O399 
O394   C395 
C395   C396 
C395   H408 
C395   H409 
C396   C397 
C396   H412 
C396   H413 
C397   C398 
C397   H414 
C397   H415 
C398   H421 
C398   H422 
C398   H423 
O399   C400 
C400   C401 
C400   H406 
C400   H407 
C401   C402 
C401   H410 
C401   H411 
C402   C403 
C402   H416 
C402   H417 
C403   H418 
C403   H419 
C403   H420 
  
#END  
