data_
_symmetry_cell_setting           triclinic 
_symmetry_space_group_name_H-M   'P 1' 
_symmetry_Int_Tables_number      1 
loop_ 
_symmetry_equiv_pos_site_id 
_symmetry_equiv_pos_as_xyz 
1 x,y,z 
_cell_length_a             10.639681        
_cell_length_b             18.581958        
_cell_length_c             18.977263        
_cell_angle_alpha          88.877058        
_cell_angle_beta           88.554897        
_cell_angle_gamma          89.861197        
loop_  
_atom_site_label   
_atom_site_type_symbol  
_atom_site_fract_x  
_atom_site_fract_y  
_atom_site_fract_z 
 Cu0  Cu     0.005423      0.007695      0.072407 
 Cu1  Cu     0.005946      0.006902     -0.066740 
 O2  O    -0.130133      0.076264     -0.041624 
 C3  C    -0.140157      0.116576      0.012200 
 O4  O    -0.095340      0.099001      0.073515 
 O5  O     0.133967      0.087114     -0.053976 
 C6  C     0.159473      0.111775      0.007066 
 O7  O     0.144007      0.074811      0.064857 
 O8  O    -0.104807     -0.074980     -0.060377 
 C9  C    -0.148812     -0.098762     -0.001529 
 O10  O    -0.142525     -0.062186      0.053481 
 O11  O     0.140911     -0.060273     -0.068180 
 C12  C     0.153427     -0.096982     -0.010634 
 O13  O     0.106790     -0.076763      0.048536 
 Cu14  Cu    -0.486701     -0.487920      0.061907 
 Cu15  Cu    -0.467834     -0.484161     -0.072793 
 O16  O     0.408897     -0.405117     -0.072577 
 C17  C     0.360363     -0.385533     -0.012597 
 O18  O     0.372237     -0.419179      0.048400 
 O19  O    -0.326518     -0.417634     -0.058041 
 C20  C    -0.319873     -0.386223     -0.000549 
 O21  O    -0.368097     -0.409543      0.056580 
 O22  O     0.397595      0.435723     -0.062791 
 C23  C     0.385505      0.397947     -0.002742 
 O24  O     0.426122      0.422735      0.054974 
 O25  O    -0.344078      0.432907     -0.062470 
 C26  C    -0.317505      0.410280     -0.002514 
 O27  O    -0.335960      0.441643      0.056260 
 C28  C    -0.341754      0.278772     -0.023314 
 C29  C    -0.268472      0.333101      0.001621 
 C30  C    -0.155498      0.318183      0.031529 
 C31  C    -0.103419      0.247276      0.029336 
 C32  C    -0.184576      0.190624      0.004128 
 C33  C    -0.298758      0.208080     -0.026878 
 O34  O    -0.080935      0.377513      0.050224 
 C35  C     0.042566      0.369142      0.073168 
 C36  C     0.086675      0.448853      0.072972 
 C37  C     0.016082     -0.499754      0.121182 
 C38  C     0.018933      0.471514      0.197567 
 O39  O    -0.365163      0.150701     -0.046501 
 C40  C    -0.488087      0.165354     -0.075334 
 C41  C     0.444811      0.097433     -0.096133 
 C42  C    -0.486673      0.060265     -0.157210 
 C43  C    -0.352717      0.037574     -0.145417 
 H44  H    -0.018033      0.232323      0.054790 
 H45  H    -0.430985      0.287367     -0.046110 
 H46  H     0.458916      0.191821     -0.030716 
 H47  H    -0.490268      0.203867     -0.120579 
 H48  H     0.038551      0.341632      0.126152 
 H49  H     0.102007      0.336986      0.038715 
 H50  H     0.437257      0.059454     -0.051240 
 H51  H     0.350213      0.117034     -0.112640 
 H52  H     0.180270      0.445154      0.094370 
 H53  H     0.088833      0.477449      0.021467 
 H54  H     0.064088     -0.449218      0.117109 
 H55  H    -0.080428     -0.487730      0.106911 
 H56  H     0.460273      0.016605     -0.176475 
 H57  H    -0.491813      0.096153     -0.201491 
 H58  H    -0.354713     -0.008603     -0.105633 
 H59  H    -0.308332      0.007955     -0.192365 
 H60  H    -0.293616      0.076411     -0.121950 
 H61  H    -0.029226     -0.489008      0.227285 
 H62  H    -0.033383      0.417349      0.205631 
 H63  H     0.113643      0.470049      0.221137 
 N64  N    -0.017581     -0.013950      0.320745 
 C65  C     0.058434     -0.075008      0.290973 
 C66  C    -0.141872     -0.014675      0.292723 
 C67  C     0.041012      0.053963      0.296041 
 C68  C    -0.133675     -0.017183      0.208670 
 H69  H    -0.189721     -0.060598      0.312511 
 H70  H    -0.193238      0.032495      0.306058 
 C71  C     0.079134     -0.064071      0.208377 
 H72  H     0.150645     -0.077106      0.317098 
 H73  H     0.009469     -0.127068      0.302505 
 C74  C     0.042884      0.060250      0.214254 
 H75  H    -0.016785      0.100953      0.316256 
 H76  H     0.135525      0.061435      0.318840 
 H77  H     0.183558     -0.059048      0.198830 
 H78  H     0.045869     -0.120434      0.185538 
 H79  H    -0.172836     -0.068760      0.189472 
 H80  H    -0.196179      0.022278      0.186408 
 H81  H     0.138394      0.076287      0.197253 
 N82  N    -0.005695     -0.005781      0.181054 
 H83  H    -0.015652      0.106028      0.198038 
 C84  C     0.318941      0.289257      0.062442 
 C85  C     0.322456      0.327791     -0.000628 
 C86  C     0.252268      0.299123     -0.056470 
 C87  C     0.209413      0.228205     -0.057936 
 C88  C     0.211868      0.187625      0.004180 
 C89  C     0.260960      0.220388      0.064732 
 O90  O     0.245460      0.343785     -0.117643 
 C91  C     0.155140      0.331871     -0.171461 
 C92  C     0.210266      0.296766     -0.236704 
 C93  C     0.291257      0.228038     -0.232897 
 C94  C     0.314738      0.190650     -0.300845 
 O95  O     0.246450      0.184015      0.131805 
 C96  C     0.347814      0.189943      0.179920 
 C97  C     0.327520      0.243569      0.241456 
 C98  C     0.211955      0.222475      0.287108 
 C99  C     0.161680      0.287178      0.331851 
 H100  H     0.162200      0.207933     -0.103550 
 H101  H     0.367745      0.310349      0.107855 
 H102  H     0.376935      0.137025      0.201296 
 H103  H     0.434579      0.204310      0.150788 
 H104  H     0.071091      0.300178     -0.146893 
 H105  H     0.122257      0.387073     -0.186033 
 H106  H     0.412490      0.240302      0.277293 
 H107  H     0.332231      0.301916      0.229016 
 H108  H     0.132119      0.286461     -0.271210 
 H109  H     0.272256      0.336854     -0.263676 
 H110  H     0.385395      0.241239     -0.213585 
 H111  H     0.262975      0.185405     -0.194068 
 H112  H     0.133863      0.203658      0.251587 
 H113  H     0.234157      0.170514      0.318709 
 H114  H     0.242615      0.301479      0.366366 
 H115  H     0.130197      0.332111      0.302090 
 H116  H     0.089473      0.269424      0.366741 
 H117  H     0.229757      0.157830     -0.319556 
 H118  H     0.344152      0.230867     -0.340971 
 H119  H     0.393398      0.152112     -0.290617 
 C120  C     0.203655     -0.209777      0.048940 
 C121  C     0.202329     -0.170576     -0.012780 
 C122  C     0.249107     -0.205064     -0.077058 
 C123  C     0.287204     -0.275972     -0.075445 
 C124  C     0.293210     -0.314730     -0.012470 
 C125  C     0.249283     -0.279044      0.050620 
 O126  O     0.241990     -0.168657     -0.141578 
 C127  C     0.240503     -0.205402     -0.206347 
 C128  C     0.113766     -0.240271     -0.211345 
 C129  C     0.094897     -0.289307     -0.276403 
 C130  C     0.081557     -0.245228     -0.343792 
 O131  O     0.253533     -0.316186      0.111774 
 C132  C     0.187209     -0.299656      0.174194 
 C133  C     0.267263     -0.247098      0.214023 
 C134  C     0.231286     -0.244282      0.290525 
 C135  C     0.323043     -0.202455      0.333923 
 H136  H     0.311555     -0.312181     -0.123115 
 H137  H     0.159171     -0.183373      0.094173 
 H138  H     0.090036     -0.277198      0.161995 
 H139  H     0.174093     -0.353133      0.197940 
 H140  H     0.241866     -0.168703     -0.252035 
 H141  H     0.324818     -0.246501     -0.212252 
 H142  H     0.365501     -0.265583      0.207253 
 H143  H     0.263575     -0.194815      0.188356 
 H144  H     0.099894     -0.271682     -0.163405 
 H145  H     0.040344     -0.198908     -0.214360 
 H146  H     0.176600     -0.326676     -0.279962 
 H147  H     0.010390     -0.319519     -0.260771 
 H148  H     0.132413     -0.221493      0.289547 
 H149  H     0.218640     -0.299379      0.314313 
 H150  H     0.346370     -0.149197      0.314402 
 H151  H     0.294618     -0.190996      0.387487 
 H152  H     0.410890     -0.232288      0.347262 
 H153  H     0.085861     -0.279552     -0.391779 
 H154  H    -0.005689     -0.211701     -0.340787 
 H155  H     0.165477     -0.206719     -0.346660 
 N156  N    -0.490792      0.492584      0.313530 
 C157  C     0.451670      0.426609      0.282306 
 C158  C     0.428466     -0.445705      0.286580 
 C159  C    -0.363855      0.496932      0.284418 
 C160  C     0.419202     -0.442649      0.204059 
 H161  H     0.333254     -0.451522      0.313800 
 H162  H     0.469839     -0.394375      0.299203 
 C163  C     0.452754      0.432479      0.196837 
 H164  H     0.487787      0.380330      0.306786 
 H165  H     0.356160      0.420918      0.301932 
 C166  C    -0.366280     -0.488761      0.204455 
 H167  H    -0.322096     -0.462495      0.315106 
 H168  H    -0.325305      0.446415      0.299371 
 H169  H    -0.495000      0.390699      0.174576 
 H170  H     0.355333      0.430092      0.177963 
 H171  H     0.320569     -0.448774      0.187385 
 H172  H     0.448448     -0.386930      0.186339 
 H173  H    -0.300219      0.472753      0.177321 
 N174  N    -0.495380     -0.498334      0.175344 
 H175  H    -0.331295     -0.433115      0.188788 
 C176  C    -0.338171     -0.263281      0.042114 
 C177  C    -0.267274     -0.310531      0.000279 
 C178  C    -0.160076     -0.293045     -0.036853 
 C179  C    -0.123376     -0.224229     -0.030500 
 C180  C    -0.197536     -0.173792      0.004413 
 C181  C    -0.306795     -0.191969      0.041792 
 O182  O    -0.091555     -0.336099     -0.076171 
 C183  C    -0.027037     -0.391400     -0.044334 
 C184  C     0.072343     -0.424563     -0.099014 
 C185  C     0.012623     -0.468299     -0.154042 
 C186  C    -0.077269      0.470102     -0.130914 
 O187  O    -0.372556     -0.135773      0.076488 
 C188  C    -0.491297     -0.150024      0.106745 
 C189  C     0.477238     -0.094625      0.164122 
 C190  C     0.431755     -0.021801      0.138626 
 C191  C    -0.461383      0.020999      0.107412 
 H192  H    -0.041322     -0.208705     -0.064659 
 H193  H    -0.422832     -0.286564      0.068343 
 H194  H     0.444575     -0.149139      0.061826 
 H195  H     0.499919     -0.207436      0.122456 
 H196  H     0.022794     -0.368061      0.000735 
 H197  H    -0.091419     -0.433179     -0.027415 
 H198  H     0.402669     -0.118565      0.200585 
 H199  H    -0.436883     -0.092965      0.199630 
 H200  H     0.122954     -0.383482     -0.130235 
 H201  H     0.144541     -0.460876     -0.077779 
 H202  H    -0.051241     -0.434103     -0.189452 
 H203  H     0.083029     -0.487841     -0.187478 
 H204  H     0.367765     -0.028865      0.092948 
 H205  H     0.390824      0.013520      0.181003 
 H206  H    -0.399877      0.040764      0.146657 
 H207  H    -0.409107     -0.011670      0.066373 
 H208  H    -0.488426      0.068280      0.077504 
 H209  H    -0.144246      0.485826     -0.093112 
 H210  H    -0.117416      0.445859     -0.177240 
 H211  H    -0.041853      0.420797     -0.101178 
 Cu212  Cu    -0.006321     -0.003034     -0.426353 
 Cu213  Cu    -0.019703     -0.009134      0.437002 
 O214  O    -0.130216      0.074578      0.437517 
 C215  C    -0.156238      0.099566      0.497822 
 O216  O    -0.146926      0.067843     -0.441463 
 O217  O     0.133402      0.055117      0.448385 
 C218  C     0.148678      0.090761     -0.496698 
 O219  O     0.109083      0.073349     -0.435474 
 O220  O    -0.174053     -0.067391      0.456779 
 C221  C    -0.173400     -0.104107     -0.486152 
 O222  O    -0.126652     -0.084088     -0.430339 
 O223  O     0.059766     -0.106103      0.449339 
 C224  C     0.128334     -0.117194     -0.497029 
 O225  O     0.137331     -0.073320     -0.444585 
 Cu226  Cu    -0.494543      0.497230     -0.436898 
 Cu227  Cu     0.492378      0.495914      0.423460 
 O228  O     0.342121     -0.445004      0.447268 
 C229  C     0.334334     -0.411921     -0.497046 
 O230  O     0.372958     -0.432214     -0.438010 
 O231  O    -0.390945     -0.418068      0.434229 
 C232  C    -0.356311     -0.396408      0.493895 
 O233  O    -0.362514     -0.429848     -0.444421 
 O234  O     0.404742      0.403041      0.436284 
 C235  C     0.370415      0.380900      0.497316 
 O236  O     0.388017      0.412329     -0.444616 
 O237  O    -0.358290      0.429532      0.421882 
 C238  C    -0.341713      0.394088      0.479926 
 O239  O    -0.363935      0.423473     -0.460222 
 C240  C    -0.311084      0.275215     -0.457839 
 C241  C    -0.306606      0.315007      0.476955 
 C242  C    -0.263541      0.280704      0.414158 
 C243  C    -0.201913      0.212442      0.426701 
 C244  C    -0.201763      0.176535      0.492962 
 C245  C    -0.252207      0.206961     -0.448713 
 O246  O    -0.271809      0.316284      0.351814 
 C247  C    -0.180224      0.301636      0.299095 
 C248  C    -0.239758      0.306120      0.226248 
 C249  C    -0.339139      0.249657      0.217031 
 C250  C    -0.284063      0.179810      0.197329 
 O251  O    -0.232505      0.174899     -0.381287 
 C252  C    -0.342414      0.172282     -0.335762 
 C253  C    -0.347713      0.232118     -0.282898 
 C254  C    -0.228070      0.236905     -0.241401 
 C255  C    -0.216986      0.308479     -0.203252 
 H256  H    -0.161305      0.183759      0.382913 
 H257  H    -0.341309      0.297036     -0.405370 
 H258  H    -0.427208      0.177148     -0.370400 
 H259  H    -0.339355      0.117395     -0.312338 
 H260  H    -0.103941      0.341203      0.302723 
 H261  H    -0.126202      0.251523      0.304453 
 H262  H    -0.364487      0.287289     -0.303180 
 H263  H    -0.424464      0.212557     -0.247907 
 H264  H    -0.285142      0.360307      0.222769 
 H265  H    -0.164896      0.300172      0.181464 
 H266  H    -0.408826      0.244481      0.261419 
 H267  H    -0.398314      0.264399      0.170450 
 H268  H    -0.223465      0.190455     -0.202967 
 H269  H    -0.146586      0.237511     -0.281032 
 H270  H    -0.155226      0.312955     -0.157458 
 H271  H    -0.220788      0.356676     -0.237568 
 H272  H    -0.306879      0.312227     -0.174608 
 H273  H    -0.227397      0.182383      0.147293 
 H274  H    -0.223944      0.156945      0.240556 
 H275  H    -0.362070      0.138295      0.191586 
 N276  N     0.028872      0.016213     -0.178689 
 C277  C     0.150443      0.015668     -0.215526 
 C278  C    -0.036046     -0.051718     -0.197932 
 C279  C    -0.044419      0.079360     -0.208266 
 C280  C    -0.063227     -0.051998     -0.282108 
 H281  H     0.017147     -0.097730     -0.175162 
 H282  H    -0.127545     -0.045172     -0.173064 
 C283  C     0.137882      0.000095     -0.295114 
 H284  H     0.199686      0.064352     -0.202124 
 H285  H     0.210962     -0.028211     -0.192402 
 C286  C    -0.045152      0.075310     -0.294123 
 H287  H    -0.141500      0.078321     -0.195560 
 H288  H    -0.004251      0.129413     -0.183893 
 H289  H     0.198980      0.032594     -0.329088 
 H290  H     0.168247     -0.054936     -0.301119 
 H291  H    -0.027450     -0.102582     -0.303412 
 H292  H    -0.162190     -0.053806     -0.295388 
 H293  H     0.006554      0.119711     -0.318470 
 N294  N     0.004608      0.007900     -0.320457 
 H295  H    -0.141899      0.084483     -0.310361 
 C296  C     0.141473      0.220027     -0.474764 
 C297  C     0.207545      0.164227      0.499057 
 C298  C     0.326364      0.178021      0.466061 
 C299  C     0.379468      0.248479      0.469518 
 C300  C     0.311713      0.305231     -0.499366 
 C301  C     0.191594      0.289413     -0.471773 
 O302  O     0.405224      0.123293      0.440812 
 C303  C    -0.471718      0.141805      0.408438 
 C304  C    -0.416426      0.077472      0.370613 
 C305  C    -0.488818      0.040073      0.313414 
 C306  C     0.401371     -0.000682      0.344891 
 O307  O     0.122895      0.350707     -0.454855 
 C308  C     0.007387      0.335484     -0.414264 
 C309  C    -0.056384      0.405960     -0.403884 
 C310  C     0.018775      0.465538     -0.364010 
 C311  C    -0.075370     -0.471408     -0.350899 
 H312  H     0.473711      0.260215      0.451209 
 H313  H     0.042533      0.206745     -0.451523 
 H314  H    -0.059167      0.301286     -0.444353 
 H315  H     0.026417      0.303961     -0.367870 
 H316  H    -0.493937      0.179537      0.367466 
 H317  H    -0.412400      0.164156      0.447268 
 H318  H    -0.082549      0.431110     -0.454248 
 H319  H    -0.135914      0.394328     -0.369968 
 H320  H    -0.328054      0.090547      0.347640 
 H321  H    -0.393990      0.035194      0.412989 
 H322  H     0.479379      0.078287      0.274789 
 H323  H    -0.421645      0.005100      0.285475 
 H324  H     0.062180      0.444104     -0.317257 
 H325  H     0.092954      0.484572     -0.403145 
 H326  H    -0.144838     -0.484746     -0.307994 
 H327  H    -0.018111     -0.423902     -0.335130 
 H328  H    -0.132010     -0.445488     -0.394452 
 H329  H     0.328647     -0.018634      0.306261 
 H330  H     0.421132     -0.045160      0.380204 
 H331  H     0.339833      0.033854      0.377959 
 C332  C     0.343332     -0.280544     -0.463164 
 C333  C     0.281662     -0.335204     -0.499330 
 C334  C     0.170475     -0.315015      0.465487 
 C335  C     0.126218     -0.244437      0.464217 
 C336  C     0.183027     -0.192926     -0.496624 
 C337  C     0.295168     -0.207728     -0.460633 
 O338  O     0.098818     -0.361261      0.429175 
 C339  C     0.032085     -0.411400      0.470897 
 C340  C    -0.057475     -0.450032      0.427083 
 C341  C     0.010776     -0.483886      0.358500 
 C342  C     0.110300      0.459713      0.371287 
 O343  O     0.341937     -0.152438     -0.426633 
 C344  C     0.440249     -0.163853     -0.378055 
 C345  C     0.456413     -0.090173     -0.340839 
 C346  C     0.458239     -0.025701     -0.389148 
 C347  C    -0.437827     -0.019132     -0.443551 
 H348  H     0.054438     -0.228417      0.426504 
 H349  H     0.424357     -0.294731     -0.430445 
 H350  H     0.411792     -0.210241     -0.340317 
 H351  H    -0.475219     -0.174870     -0.407922 
 H352  H     0.094979     -0.449175      0.497952 
 H353  H    -0.017555     -0.381797     -0.480465 
 H354  H     0.389709     -0.081277     -0.294455 
 H355  H    -0.449401     -0.096181     -0.317273 
 H356  H    -0.091006     -0.496228      0.461414 
 H357  H    -0.139559     -0.415876      0.418256 
 H358  H    -0.051923      0.485361      0.325247 
 H359  H     0.062929     -0.442201      0.327787 
 H360  H     0.368577     -0.019846     -0.411792 
 H361  H     0.463978      0.022192     -0.356392 
 H362  H    -0.432241      0.034485     -0.464334 
 H363  H    -0.345198     -0.031789     -0.418103 
 H364  H    -0.432672     -0.059503     -0.484088 
 H365  H     0.171324      0.474154      0.411647 
 H366  H     0.068577      0.406346      0.386078 
 H367  H     0.162309      0.458345      0.322834 
 N368  N    -0.495425     -0.487949     -0.187515 
 C369  C     0.365765     -0.492575     -0.205825 
 C370  C    -0.437055     -0.427464     -0.227277 
 C371  C    -0.435022      0.445800     -0.206795 
 C372  C    -0.446419     -0.444079     -0.305648 
 H373  H    -0.481850     -0.372642     -0.221061 
 H374  H    -0.336892     -0.416118     -0.210638 
 C375  C     0.350804      0.493077     -0.286831 
 H376  H     0.320041      0.462418     -0.174155 
 H377  H     0.318608     -0.440469     -0.187488 
 C378  C    -0.450234      0.427754     -0.286589 
 H379  H    -0.332078      0.448943     -0.195813 
 H380  H    -0.481442      0.402604     -0.179222 
 H381  H     0.299361      0.441648     -0.300054 
 H382  H     0.294114     -0.460238     -0.313013 
 H383  H    -0.476864     -0.393647     -0.336221 
 H384  H    -0.346411     -0.452917     -0.325555 
 H385  H     0.490330      0.378498     -0.293316 
 N386  N     0.478978      0.490370     -0.318190 
 H387  H    -0.360038      0.415072     -0.313920 
 C388  C    -0.280429     -0.292998     -0.436924 
 C389  C    -0.315507     -0.318281      0.498359 
 C390  C    -0.300044     -0.273676      0.440241 
 C391  C    -0.267102     -0.202951      0.447754 
 C392  C    -0.231783     -0.177600     -0.488482 
 C393  C    -0.247404     -0.222400     -0.427345 
 O394  O    -0.325459     -0.294818      0.373498 
 C395  C    -0.304378     -0.248109      0.314326 
 C396  C    -0.165614     -0.244739      0.289152 
 C397  C    -0.119500     -0.314080      0.257864 
 C398  C    -0.169104     -0.324212      0.184136 
 O399  O    -0.217466     -0.194508     -0.365819 
 C400  C    -0.262043     -0.232513     -0.300539 
 C401  C    -0.216882     -0.199490     -0.227240 
 C402  C    -0.301410     -0.154206     -0.181272 
 C403  C    -0.403378     -0.204638     -0.152655 
 H404  H    -0.236648     -0.168792      0.400174 
 H405  H    -0.286903     -0.332629     -0.387798 
 H406  H    -0.364114     -0.230252     -0.302447 
 H407  H    -0.232776     -0.291678     -0.301868 
 H408  H    -0.348788     -0.274224      0.272150 
 H409  H    -0.342537     -0.194263      0.325228 
 H410  H    -0.185746     -0.251843     -0.198876 
 H411  H    -0.130502     -0.169556     -0.239741 
 H412  H    -0.155953     -0.197016      0.249293 
 H413  H    -0.102502     -0.233117      0.331637 
 H414  H    -0.019172     -0.324026      0.257366 
 H415  H    -0.160977     -0.360167      0.285034 
 H416  H    -0.240334     -0.132823     -0.141737 
 H417  H    -0.335344     -0.105517     -0.208609 
 H418  H    -0.465268     -0.221013     -0.196662 
 H419  H    -0.375404     -0.251425     -0.123015 
 H420  H    -0.465744     -0.169944     -0.124265 
 H421  H    -0.161591     -0.378902      0.161607 
 H422  H    -0.275115     -0.311656      0.181960 
 H423  H    -0.133518     -0.287070      0.144826 
loop_  
_geom_bond_atom_site_label_1  
_geom_bond_atom_site_label_2  
Cu0   Cu1 
Cu0   O4 
Cu0   O7 
Cu0   O10 
Cu0   O13 
Cu0   N82 
Cu1   O2 
Cu1   O5 
Cu1   O8 
Cu1   O11 
Cu1   N276 
O2   C3 
C3   O4 
C3   C32 
O5   C6 
C6   O7 
C6   C88 
O8   C9 
C9   O10 
C9   C180 
O11   C12 
C12   O13 
C12   C121 
Cu14   Cu15 
Cu14   O18 
Cu14   O21 
Cu14   O24 
Cu14   O27 
Cu14   N174 
Cu15   O16 
Cu15   O19 
Cu15   O22 
Cu15   O25 
Cu15   N368 
O16   C17 
C17   O18 
C17   C124 
O19   C20 
C20   O21 
C20   C177 
O22   C23 
C23   O24 
C23   C85 
O25   C26 
C26   O27 
C26   C29 
C28   C29 
C28   C33 
C28   H45 
C29   C30 
C30   C31 
C30   O34 
C31   C32 
C31   H44 
C32   C33 
C33   O39 
O34   C35 
C35   C36 
C35   H48 
C35   H49 
C36   C37 
C36   H52 
C36   H53 
C37   C38 
C37   H54 
C37   H55 
C38   H61 
C38   H62 
C38   H63 
O39   C40 
C40   C41 
C40   H46 
C40   H47 
C41   C42 
C41   H50 
C41   H51 
C42   C43 
C42   H56 
C42   H57 
C43   H58 
C43   H59 
C43   H60 
N64   C65 
N64   C66 
N64   C67 
N64   Cu213 
C65   C71 
C65   H72 
C65   H73 
C66   C68 
C66   H69 
C66   H70 
C67   C74 
C67   H75 
C67   H76 
C68   H79 
C68   H80 
C68   N82 
C71   H77 
C71   H78 
C71   N82 
C74   H81 
C74   N82 
C74   H83 
C84   C85 
C84   C89 
C84   H101 
C85   C86 
C86   C87 
C86   O90 
C87   C88 
C87   H100 
C88   C89 
C89   O95 
O90   C91 
C91   C92 
C91   H104 
C91   H105 
C92   C93 
C92   H108 
C92   H109 
C93   C94 
C93   H110 
C93   H111 
C94   H117 
C94   H118 
C94   H119 
O95   C96 
C96   C97 
C96   H102 
C96   H103 
C97   C98 
C97   H106 
C97   H107 
C98   C99 
C98   H112 
C98   H113 
C99   H114 
C99   H115 
C99   H116 
C120   C121 
C120   C125 
C120   H137 
C121   C122 
C122   C123 
C122   O126 
C123   C124 
C123   H136 
C124   C125 
C125   O131 
O126   C127 
C127   C128 
C127   H140 
C127   H141 
C128   C129 
C128   H144 
C128   H145 
C129   C130 
C129   H146 
C129   H147 
C130   H153 
C130   H154 
C130   H155 
O131   C132 
C132   C133 
C132   H138 
C132   H139 
C133   C134 
C133   H142 
C133   H143 
C134   C135 
C134   H148 
C134   H149 
C135   H150 
C135   H151 
C135   H152 
N156   C157 
N156   C158 
N156   C159 
N156   Cu227 
C157   C163 
C157   H164 
C157   H165 
C158   C160 
C158   H161 
C158   H162 
C159   C166 
C159   H167 
C159   H168 
C160   H171 
C160   H172 
C160   N174 
C163   H169 
C163   H170 
C163   N174 
C166   H173 
C166   N174 
C166   H175 
C176   C177 
C176   C181 
C176   H193 
C177   C178 
C178   C179 
C178   O182 
C179   C180 
C179   H192 
C180   C181 
C181   O187 
O182   C183 
C183   C184 
C183   H196 
C183   H197 
C184   C185 
C184   H200 
C184   H201 
C185   C186 
C185   H202 
C185   H203 
C186   H209 
C186   H210 
C186   H211 
O187   C188 
C188   C189 
C188   H194 
C188   H195 
C189   C190 
C189   H198 
C189   H199 
C190   C191 
C190   H204 
C190   H205 
C191   H206 
C191   H207 
C191   H208 
Cu212   Cu213 
Cu212   O216 
Cu212   O219 
Cu212   O222 
Cu212   O225 
Cu212   N294 
Cu213   O214 
Cu213   O217 
Cu213   O220 
Cu213   O223 
O214   C215 
C215   O216 
C215   C244 
O217   C218 
C218   O219 
C218   C297 
O220   C221 
C221   O222 
C221   C392 
O223   C224 
C224   O225 
C224   C336 
Cu226   Cu227 
Cu226   O230 
Cu226   O233 
Cu226   O236 
Cu226   O239 
Cu226   N386 
Cu227   O228 
Cu227   O231 
Cu227   O234 
Cu227   O237 
O228   C229 
C229   O230 
C229   C333 
O231   C232 
C232   O233 
C232   C389 
O234   C235 
C235   O236 
C235   C300 
O237   C238 
C238   O239 
C238   C241 
C240   C241 
C240   C245 
C240   H257 
C241   C242 
C242   C243 
C242   O246 
C243   C244 
C243   H256 
C244   C245 
C245   O251 
O246   C247 
C247   C248 
C247   H260 
C247   H261 
C248   C249 
C248   H264 
C248   H265 
C249   C250 
C249   H266 
C249   H267 
C250   H273 
C250   H274 
C250   H275 
O251   C252 
C252   C253 
C252   H258 
C252   H259 
C253   C254 
C253   H262 
C253   H263 
C254   C255 
C254   H268 
C254   H269 
C255   H270 
C255   H271 
C255   H272 
N276   C277 
N276   C278 
N276   C279 
C277   C283 
C277   H284 
C277   H285 
C278   C280 
C278   H281 
C278   H282 
C279   C286 
C279   H287 
C279   H288 
C280   H291 
C280   H292 
C280   N294 
C283   H289 
C283   H290 
C283   N294 
C286   H293 
C286   N294 
C286   H295 
C296   C297 
C296   C301 
C296   H313 
C297   C298 
C298   C299 
C298   O302 
C299   C300 
C299   H312 
C300   C301 
C301   O307 
O302   C303 
C303   C304 
C303   H316 
C303   H317 
C304   C305 
C304   H320 
C304   H321 
C305   C306 
C305   H322 
C305   H323 
C306   H329 
C306   H330 
C306   H331 
O307   C308 
C308   C309 
C308   H314 
C308   H315 
C309   C310 
C309   H318 
C309   H319 
C310   C311 
C310   H324 
C310   H325 
C311   H326 
C311   H327 
C311   H328 
C332   C333 
C332   C337 
C332   H349 
C333   C334 
C334   C335 
C334   O338 
C335   C336 
C335   H348 
C336   C337 
C337   O343 
O338   C339 
C339   C340 
C339   H352 
C339   H353 
C340   C341 
C340   H356 
C340   H357 
C341   C342 
C341   H358 
C341   H359 
C342   H365 
C342   H366 
C342   H367 
O343   C344 
C344   C345 
C344   H350 
C344   H351 
C345   C346 
C345   H354 
C345   H355 
C346   C347 
C346   H360 
C346   H361 
C347   H362 
C347   H363 
C347   H364 
N368   C369 
N368   C370 
N368   C371 
C369   C375 
C369   H376 
C369   H377 
C370   C372 
C370   H373 
C370   H374 
C371   C378 
C371   H379 
C371   H380 
C372   H383 
C372   H384 
C372   N386 
C375   H381 
C375   H382 
C375   N386 
C378   H385 
C378   N386 
C378   H387 
C388   C389 
C388   C393 
C388   H405 
C389   C390 
C390   C391 
C390   O394 
C391   C392 
C391   H404 
C392   C393 
C393   O399 
O394   C395 
C395   C396 
C395   H408 
C395   H409 
C396   C397 
C396   H412 
C396   H413 
C397   C398 
C397   H414 
C397   H415 
C398   H421 
C398   H422 
C398   H423 
O399   C400 
C400   C401 
C400   H406 
C400   H407 
C401   C402 
C401   H410 
C401   H411 
C402   C403 
C402   H416 
C402   H417 
C403   H418 
C403   H419 
C403   H420 
  
#END  
