data_
_symmetry_cell_setting           triclinic 
_symmetry_space_group_name_H-M   'P 1' 
_symmetry_Int_Tables_number      1 
loop_ 
_symmetry_equiv_pos_site_id 
_symmetry_equiv_pos_as_xyz 
1 x,y,z 
_cell_length_a             15.446392        
_cell_length_b             15.269851        
_cell_length_c             18.991416        
_cell_angle_alpha          90.373180        
_cell_angle_beta           91.529337        
_cell_angle_gamma          89.853401        
loop_  
_atom_site_label   
_atom_site_type_symbol  
_atom_site_fract_x  
_atom_site_fract_y  
_atom_site_fract_z 
 Cu0  Cu     0.000696     -0.000638      0.066329 
 Cu1  Cu    -0.002434      0.000994     -0.070205 
 O2  O    -0.107303      0.074863     -0.060626 
 C3  C    -0.121836      0.113424     -0.002517 
 O4  O    -0.079641      0.100714      0.055288 
 O5  O     0.070864      0.107222     -0.056873 
 C6  C     0.112138      0.121205      0.001016 
 O7  O     0.101675      0.079591      0.058151 
 O8  O    -0.075860     -0.105265     -0.061444 
 C9  C    -0.115455     -0.119261     -0.004599 
 O10  O    -0.100712     -0.079677      0.053818 
 O11  O     0.102605     -0.072445     -0.059662 
 C12  C     0.118257     -0.114294     -0.002965 
 O13  O     0.079470     -0.103267      0.054851 
 Cu14  Cu     0.498343     -0.497421      0.069922 
 Cu15  Cu     0.497550      0.497776     -0.066662 
 O16  O     0.421811     -0.396650     -0.061889 
 C17  C     0.381294     -0.382799     -0.005231 
 O18  O     0.396828     -0.420087      0.053522 
 O19  O    -0.398204     -0.426273     -0.055708 
 C20  C    -0.384224     -0.383634      0.001369 
 O21  O    -0.423872     -0.395288      0.058425 
 O22  O     0.393873      0.421363     -0.056500 
 C23  C     0.381075      0.383363      0.001946 
 O24  O     0.420786      0.399760      0.060131 
 O25  O    -0.426979      0.393669     -0.049569 
 C26  C    -0.387924      0.380354      0.009498 
 O27  O    -0.400716      0.423232      0.065950 
 C28  C    -0.322087      0.251592     -0.047653 
 C29  C    -0.322167      0.307716      0.010892 
 C30  C    -0.260572      0.297704      0.066089 
 C31  C    -0.196290      0.233297      0.059810 
 C32  C    -0.194016      0.179506     -0.000118 
 C33  C    -0.256885      0.188277     -0.054611 
 O34  O    -0.263455      0.352012      0.123823 
 C35  C    -0.207548      0.333916      0.183555 
 C36  C    -0.228493      0.397754      0.242431 
 C37  C    -0.177704      0.379670      0.311465 
 C38  C    -0.198714      0.444763      0.370394 
 O39  O    -0.252661      0.135640     -0.113287 
 C40  C    -0.312761      0.148912     -0.171352 
 C41  C    -0.276505      0.104203     -0.235886 
 C42  C    -0.331897      0.116120     -0.303479 
 C43  C    -0.288737      0.077443     -0.368538 
 H44  H    -0.146715      0.225808      0.101394 
 H45  H    -0.372364      0.258675     -0.088721 
 H46  H    -0.375709      0.120871     -0.157763 
 H47  H    -0.321525      0.219231     -0.181954 
 H48  H    -0.217526      0.265871      0.200590 
 H49  H    -0.139660      0.341582      0.168432 
 H50  H    -0.211769      0.131284     -0.244678 
 H51  H    -0.267702      0.033818     -0.225504 
 H52  H    -0.215818      0.465143      0.225123 
 H53  H    -0.298163      0.394348      0.252566 
 H54  H    -0.191895      0.312777      0.329164 
 H55  H    -0.107740      0.381275      0.301821 
 H56  H    -0.395634      0.085546     -0.296922 
 H57  H    -0.344192      0.186400     -0.312063 
 H58  H    -0.328551      0.087051     -0.416636 
 H59  H    -0.225950      0.108649     -0.377111 
 H60  H    -0.276949      0.006899     -0.363061 
 H61  H    -0.164268      0.428019      0.419856 
 H62  H    -0.180285     -0.488312      0.356621 
 H63  H    -0.268211      0.445230      0.381167 
 N64  N     0.000928      0.007204      0.317034 
 C65  C     0.050367     -0.068777      0.290485 
 C66  C    -0.088917      0.002048      0.288143 
 C67  C     0.040600      0.087976      0.290002 
 C68  C    -0.089743      0.001908      0.205909 
 H69  H    -0.119823     -0.057564      0.307969 
 H70  H    -0.126489      0.058038      0.308037 
 C71  C     0.048449     -0.070589      0.208292 
 H72  H     0.117836     -0.064528      0.310740 
 H73  H     0.023086     -0.129576      0.311601 
 C74  C     0.040888      0.086388      0.207776 
 H75  H     0.004439      0.145239      0.309473 
 H76  H     0.107279      0.093578      0.311630 
 H77  H     0.114895     -0.069372      0.188435 
 H78  H     0.018120     -0.131393      0.188144 
 H79  H    -0.122234     -0.057203      0.184767 
 H80  H    -0.126561      0.058537      0.185153 
 H81  H     0.107909      0.089709      0.189371 
 N82  N    -0.000348      0.005407      0.179919 
 H83  H     0.006262      0.143691      0.185783 
 C84  C     0.236470      0.329342     -0.038010 
 C85  C     0.312373      0.314331      0.001919 
 C86  C     0.323725      0.237477      0.041282 
 C87  C     0.256704      0.175631      0.041828 
 C88  C     0.180376      0.190917      0.002231 
 C89  C     0.168442      0.268770     -0.035871 
 O90  O     0.400606      0.226669      0.077830 
 C91  C     0.432887      0.139692      0.088955 
 C92  C    -0.473779      0.147000      0.116235 
 C93  C    -0.429217      0.057819      0.127010 
 C94  C    -0.335179      0.064709      0.154392 
 O95  O     0.089665      0.283466     -0.068666 
 C96  C     0.067040      0.371828     -0.086748 
 C97  C    -0.030688      0.379716     -0.097283 
 C98  C    -0.069452      0.320802     -0.155812 
 C99  C    -0.164763      0.342059     -0.172672 
 H100  H     0.264396      0.115449      0.072136 
 H101  H     0.229726      0.389300     -0.068820 
 H102  H     0.089014      0.416747     -0.044320 
 H103  H     0.100410      0.389508     -0.135161 
 H104  H     0.392688      0.106120      0.127349 
 H105  H     0.429085      0.102745      0.038921 
 H106  H    -0.062120      0.364468     -0.047387 
 H107  H    -0.047113      0.448414     -0.108849 
 H108  H    -0.436475      0.185801      0.078912 
 H109  H    -0.471916      0.184047      0.166240 
 H110  H    -0.466593      0.018502      0.163830 
 H111  H    -0.430630      0.021812      0.076590 
 H112  H    -0.031665      0.327196     -0.203807 
 H113  H    -0.063415      0.251820     -0.139603 
 H114  H    -0.191551      0.298052     -0.213667 
 H115  H    -0.204145      0.335197     -0.125753 
 H116  H    -0.172866      0.409628     -0.191228 
 H117  H    -0.306444     -0.000512      0.162439 
 H118  H    -0.294937      0.099455      0.116823 
 H119  H    -0.330692      0.100174      0.204866 
 C120  C     0.321750     -0.240791     -0.048336 
 C121  C     0.310229     -0.315929     -0.007738 
 C122  C     0.236145     -0.327101      0.032521 
 C123  C     0.174704     -0.259466      0.035042 
 C124  C     0.186885     -0.183684     -0.004550 
 C125  C     0.260567     -0.172881     -0.045371 
 O126  O     0.227755     -0.405020      0.067123 
 C127  C     0.147234     -0.427359      0.098036 
 C128  C     0.151496      0.475776      0.116446 
 C129  C     0.067543      0.439831      0.146803 
 C130  C     0.071033      0.340770      0.159697 
 O131  O     0.269038     -0.095148     -0.080144 
 C132  C     0.352686     -0.067744     -0.102080 
 C133  C     0.347398      0.030299     -0.115887 
 C134  C     0.433708      0.071304     -0.136793 
 C135  C     0.428019      0.170915     -0.146249 
 H136  H     0.117186     -0.266049      0.066765 
 H137  H     0.379172     -0.233965     -0.080103 
 H138  H     0.401849     -0.082113     -0.060581 
 H139  H     0.369252     -0.104115     -0.150179 
 H140  H     0.138515     -0.386697      0.145469 
 H141  H     0.093234     -0.414388      0.060411 
 H142  H     0.298082      0.042953     -0.157574 
 H143  H     0.324185      0.063683     -0.068343 
 H144  H     0.167209      0.437907      0.068906 
 H145  H     0.205588      0.464449      0.154301 
 H146  H     0.054187      0.474233      0.196520 
 H147  H     0.012708      0.454716      0.110526 
 H148  H     0.483870      0.056171     -0.096340 
 H149  H     0.455236      0.040606     -0.185990 
 H150  H     0.490130      0.198269     -0.162198 
 H151  H     0.379017      0.188651     -0.186666 
 H152  H     0.410517      0.203880     -0.096978 
 H153  H     0.011014      0.317357      0.182859 
 H154  H     0.079827      0.304227      0.110289 
 H155  H     0.124904      0.323284      0.195853 
 N156  N     0.496711     -0.497622      0.319744 
 C157  C    -0.491123      0.411986      0.293043 
 C158  C     0.413172     -0.463783      0.291043 
 C159  C    -0.432938     -0.442467      0.292933 
 C160  C     0.412578     -0.464077      0.208807 
 H161  H     0.360137      0.495665      0.310741 
 H162  H     0.402689     -0.396804      0.311189 
 C163  C    -0.494646      0.410149      0.210870 
 H164  H    -0.428347      0.386655      0.313044 
 H165  H     0.458711      0.369207      0.314347 
 C166  C    -0.432990     -0.445407      0.210848 
 H167  H    -0.441894     -0.374643      0.311841 
 H168  H    -0.370211     -0.465398      0.314990 
 H169  H    -0.435404      0.380257      0.190209 
 H170  H     0.450736      0.369601      0.191323 
 H171  H     0.358264      0.496561      0.187082 
 H172  H     0.403511     -0.397071      0.188602 
 H173  H    -0.371285     -0.472090      0.192021 
 N174  N     0.494842      0.499864      0.182786 
 H175  H    -0.439238     -0.378663      0.189595 
 C176  C    -0.247827     -0.182126      0.047179 
 C177  C    -0.185590     -0.187307     -0.005058 
 C178  C    -0.187979     -0.256128     -0.054505 
 C179  C    -0.253737     -0.319033     -0.052284 
 C180  C    -0.315995     -0.313782     -0.000004 
 C181  C    -0.314003     -0.244362      0.049046 
 O182  O    -0.126992     -0.261050     -0.105102 
 C183  C    -0.074749     -0.338771     -0.105108 
 C184  C     0.011600     -0.315204     -0.136653 
 C185  C     0.077950     -0.390236     -0.135321 
 C186  C     0.163977     -0.365516     -0.168314 
 O187  O    -0.373394     -0.235672      0.100617 
 C188  C    -0.453749     -0.195555      0.078703 
 C189  C     0.485107     -0.197045      0.140183 
 C190  C     0.399754     -0.147520      0.126153 
 C191  C     0.333653     -0.160088      0.184023 
 H192  H    -0.255066     -0.371675     -0.091420 
 H193  H    -0.246775     -0.129736      0.086531 
 H194  H    -0.440788     -0.128116      0.061863 
 H195  H    -0.481975     -0.231407      0.033084 
 H196  H    -0.065525     -0.362928     -0.050829 
 H197  H    -0.108318     -0.389952     -0.136471 
 H198  H     0.470408     -0.265740      0.152229 
 H199  H    -0.482124     -0.169489      0.187509 
 H200  H     0.000700     -0.293421     -0.191328 
 H201  H     0.039233     -0.258674     -0.107546 
 H202  H     0.090311     -0.410589     -0.080435 
 H203  H     0.050197     -0.447358     -0.163303 
 H204  H     0.413186     -0.077276      0.120024 
 H205  H     0.370930     -0.169639      0.075606 
 H206  H     0.273927     -0.123066      0.172267 
 H207  H     0.315680     -0.229390      0.188751 
 H208  H     0.359400     -0.137989      0.235613 
 H209  H     0.211109     -0.419397     -0.164079 
 H210  H     0.155062     -0.349492     -0.224396 
 H211  H     0.193041     -0.308146     -0.141798 
 Cu212  Cu     0.008374      0.004336     -0.432926 
 Cu213  Cu     0.008181      0.005340      0.430393 
 O214  O    -0.091685      0.086397      0.437838 
 C215  C    -0.107838      0.123667      0.496234 
 O216  O    -0.069500      0.107885     -0.444937 
 O217  O     0.088214      0.105555      0.445237 
 C218  C     0.125894      0.121128     -0.495453 
 O219  O     0.109095      0.083323     -0.437921 
 O220  O    -0.072478     -0.095310      0.435836 
 C221  C    -0.111283     -0.109922      0.492885 
 O222  O    -0.093113     -0.073797     -0.447805 
 O223  O     0.109221     -0.074677      0.442457 
 C224  C     0.124942     -0.112605     -0.499046 
 O225  O     0.086508     -0.098348     -0.441550 
 Cu226  Cu    -0.492597     -0.494614     -0.430549 
 Cu227  Cu    -0.494351     -0.493626      0.432855 
 O228  O     0.422527     -0.395245      0.443109 
 C229  C     0.384519     -0.382574     -0.498979 
 O230  O     0.401548     -0.421055     -0.440895 
 O231  O    -0.397646     -0.409988      0.446959 
 C232  C    -0.382468     -0.370640     -0.494632 
 O233  O    -0.419070     -0.387740     -0.437042 
 O234  O     0.409252      0.422810      0.437796 
 C235  C     0.393636      0.385018      0.495572 
 O236  O     0.432422      0.400562     -0.445481 
 O237  O    -0.411496      0.407143      0.443443 
 C238  C    -0.371566      0.392976     -0.498135 
 O239  O    -0.387827      0.430336     -0.439769 
 C240  C    -0.310682      0.256423      0.451610 
 C241  C    -0.301342      0.324881     -0.499249 
 C242  C    -0.229142      0.328763     -0.452688 
 C243  C    -0.167293      0.261322     -0.454414 
 C244  C    -0.176934      0.192828      0.496745 
 C245  C    -0.249130      0.188799      0.450422 
 O246  O    -0.220456      0.399840     -0.408527 
 C247  C    -0.144400      0.406872     -0.363844 
 C248  C    -0.143808      0.495552     -0.326698 
 C249  C    -0.133643     -0.426521     -0.376598 
 C250  C    -0.119298     -0.339341     -0.337577 
 O251  O    -0.256353      0.118085      0.405954 
 C252  C    -0.340553      0.091390      0.380713 
 C253  C    -0.337731     -0.007559      0.370182 
 C254  C    -0.424585     -0.046713      0.344482 
 C255  C    -0.424285     -0.147109      0.341459 
 H256  H    -0.110702      0.262243     -0.418634 
 H257  H    -0.366262      0.254872      0.414873 
 H258  H    -0.390055      0.109206      0.418960 
 H259  H    -0.356027      0.125607      0.331058 
 H260  H    -0.144706      0.353308     -0.325302 
 H261  H    -0.086015      0.399797     -0.395521 
 H262  H    -0.287200     -0.024739      0.332585 
 H263  H    -0.317852     -0.038423      0.420410 
 H264  H    -0.204021     -0.496241     -0.297499 
 H265  H    -0.090531      0.496658     -0.287005 
 H266  H    -0.078881     -0.438790     -0.411300 
 H267  H    -0.191643     -0.421605     -0.411444 
 H268  H    -0.476120     -0.024396      0.379344 
 H269  H    -0.441230     -0.020860      0.291870 
 H270  H    -0.487545     -0.172586      0.323205 
 H271  H    -0.375268     -0.171861      0.305406 
 H272  H    -0.410137     -0.175204      0.393681 
 H273  H    -0.112079     -0.285291     -0.374884 
 H274  H    -0.174045     -0.323549     -0.303918 
 H275  H    -0.060288     -0.341305     -0.304020 
 N276  N     0.010650     -0.007404     -0.182486 
 C277  C     0.016888     -0.097671     -0.210693 
 C278  C    -0.069179      0.032744     -0.212127 
 C279  C     0.085662      0.042975     -0.206912 
 C280  C    -0.068684      0.031500     -0.294236 
 H281  H    -0.125690     -0.003082     -0.192897 
 H282  H    -0.073949      0.100673     -0.192477 
 C283  C     0.020866     -0.096928     -0.292791 
 H284  H     0.074731     -0.129902     -0.187382 
 H285  H    -0.039786     -0.135127     -0.193876 
 C286  C     0.085730      0.045450     -0.289011 
 H287  H     0.083214      0.110115     -0.185323 
 H288  H     0.145576      0.012600     -0.185592 
 H289  H     0.082624     -0.125201     -0.310021 
 H290  H    -0.031251     -0.137349     -0.316832 
 H291  H    -0.123359     -0.007422     -0.315858 
 H292  H    -0.076541      0.098581     -0.314614 
 H293  H     0.147325      0.019889     -0.309015 
 N294  N     0.013138     -0.006373     -0.319502 
 H295  H     0.078978      0.113507     -0.307405 
 C296  C     0.300618      0.284899     -0.438396 
 C297  C     0.323668      0.316933      0.495818 
 C298  C     0.282601      0.285979      0.433613 
 C299  C     0.217701      0.222680      0.439073 
 C300  C     0.195141      0.190034     -0.495221 
 C301  C     0.235989      0.221241     -0.433019 
 O302  O     0.307967      0.318397      0.370034 
 C303  C     0.267338      0.291958      0.304197 
 C304  C     0.315561      0.216061      0.269646 
 C305  C     0.325037      0.132376      0.313929 
 C306  C     0.371461      0.057772      0.275963 
 O307  O     0.211489      0.187639     -0.369649 
 C308  C     0.242861      0.222546     -0.303185 
 C309  C     0.183674      0.294992     -0.276058 
 C310  C     0.167403      0.371904     -0.326699 
 C311  C     0.111759      0.444905     -0.295529 
 H312  H     0.184521      0.197984      0.391682 
 H313  H     0.333554      0.309969     -0.391023 
 H314  H     0.243561      0.167449     -0.266043 
 H315  H     0.310416      0.244480     -0.305909 
 H316  H     0.198381      0.276978      0.310573 
 H317  H     0.269106      0.349674      0.269786 
 H318  H     0.120866      0.266047     -0.263057 
 H319  H     0.211558      0.320328     -0.225974 
 H320  H     0.282098      0.199753      0.219304 
 H321  H     0.380577      0.238564      0.255755 
 H322  H     0.360858      0.147716      0.363361 
 H323  H     0.260802      0.109173      0.328951 
 H324  H     0.229554      0.399847     -0.342323 
 H325  H     0.135291      0.347286     -0.375329 
 H326  H     0.101440      0.498309     -0.333417 
 H327  H     0.047886      0.420333     -0.281204 
 H328  H     0.143069      0.472993     -0.247996 
 H329  H     0.377577     -0.000099      0.309884 
 H330  H     0.335618      0.037800      0.227768 
 H331  H     0.436943      0.077286      0.261312 
 C332  C     0.165804     -0.269404     -0.499084 
 C333  C     0.192958     -0.182089     -0.498039 
 C334  C     0.280872     -0.159359     -0.496477 
 C335  C     0.343172     -0.226369     -0.497387 
 C336  C     0.316046     -0.313622     -0.498775 
 C337  C     0.228139     -0.336432      0.499640 
 O338  O     0.301624     -0.072132     -0.493799 
 C339  C     0.390307     -0.048993     -0.479672 
 C340  C     0.397012      0.049819     -0.471055 
 C341  C     0.489598      0.080039     -0.452259 
 C342  C     0.499530      0.179837     -0.448309 
 O343  O     0.207672     -0.423725      0.496292 
 C344  C     0.119174     -0.447390      0.481721 
 C345  C     0.114211      0.454404      0.468455 
 C346  C     0.021895      0.423180      0.449712 
 C347  C     0.014916      0.323957      0.438408 
 H348  H     0.412438     -0.211745     -0.496862 
 H349  H     0.096597     -0.284200     -0.499604 
 H350  H     0.079934     -0.428735     -0.472905 
 H351  H     0.094703     -0.411481      0.435080 
 H352  H     0.413548     -0.082035     -0.431279 
 H353  H     0.429792     -0.071533      0.476231 
 H354  H     0.157467      0.436580      0.425392 
 H355  H     0.139041      0.419308     -0.484701 
 H356  H     0.374225      0.081751      0.479989 
 H357  H     0.353093      0.071898     -0.429706 
 H358  H    -0.490077      0.051385     -0.401398 
 H359  H    -0.465902      0.053302     -0.491289 
 H360  H    -0.021803      0.443263      0.491767 
 H361  H    -0.001449      0.456864      0.401734 
 H362  H    -0.051852      0.304442      0.424660 
 H363  H     0.056028      0.301504      0.395542 
 H364  H     0.034579      0.288199      0.486282 
 H365  H    -0.433315      0.198892     -0.435537 
 H366  H     0.481259      0.210587     -0.498743 
 H367  H     0.458785      0.208310     -0.407507 
 N368  N     0.498999      0.495314     -0.180517 
 C369  C    -0.448118      0.421724     -0.206841 
 C370  C     0.410355      0.486565     -0.211146 
 C371  C    -0.463564     -0.421930     -0.205830 
 C372  C     0.412243      0.486820     -0.293313 
 H373  H     0.381320      0.425384     -0.192336 
 H374  H     0.370006     -0.459187     -0.191715 
 C375  C    -0.445550      0.423087     -0.289055 
 H376  H    -0.382093      0.426456     -0.183508 
 H377  H    -0.475658      0.359626     -0.188444 
 C378  C    -0.462441     -0.420863     -0.287925 
 H379  H     0.498652     -0.366189     -0.185673 
 H380  H    -0.397121     -0.415062     -0.183871 
 H381  H    -0.378257      0.430038     -0.306192 
 H382  H    -0.470225      0.361093     -0.311908 
 H383  H     0.385088      0.425402     -0.315065 
 H384  H     0.371791     -0.459474     -0.314688 
 H385  H    -0.395631     -0.412509     -0.305844 
 N386  N    -0.497985      0.496717     -0.317584 
 H387  H     0.499167     -0.365386     -0.308900 
 C388  C    -0.232561     -0.179201     -0.446192 
 C389  C    -0.184942     -0.174125      0.492242 
 C390  C    -0.204221     -0.229619      0.434664 
 C391  C    -0.269761     -0.292230      0.441224 
 C392  C    -0.315515     -0.299340     -0.496333 
 C393  C    -0.297808     -0.242158     -0.439419 
 O394  O    -0.158191     -0.222378      0.374100 
 C395  C    -0.177153     -0.281381      0.316575 
 C396  C    -0.116056     -0.263320      0.257013 
 C397  C    -0.129771     -0.324925      0.193403 
 C398  C    -0.066594     -0.307777      0.134206 
 O399  O    -0.343334     -0.249328     -0.378559 
 C400  C    -0.329145     -0.185653     -0.323345 
 C401  C    -0.382179     -0.210047     -0.260191 
 C402  C    -0.372808     -0.145128     -0.198297 
 C403  C    -0.425932     -0.171233     -0.134754 
 H404  H    -0.284703     -0.336667      0.397361 
 H405  H    -0.217175     -0.134729     -0.402453 
 H406  H    -0.259947     -0.183850     -0.307755 
 H407  H    -0.348584     -0.120736     -0.343275 
 H408  H    -0.168521     -0.349110      0.334940 
 H409  H    -0.244972     -0.272443      0.298456 
 H410  H    -0.450973     -0.215338     -0.276498 
 H411  H    -0.361623     -0.275337     -0.241998 
 H412  H    -0.124801     -0.195220      0.239602 
 H413  H    -0.048640     -0.269084      0.276939 
 H414  H    -0.122956     -0.393339      0.210730 
 H415  H    -0.196720     -0.318050      0.172614 
 H416  H    -0.304016     -0.140057     -0.181864 
 H417  H    -0.392720     -0.079355     -0.215925 
 H418  H    -0.417548     -0.123846     -0.091297 
 H419  H    -0.495236     -0.174850     -0.148778 
 H420  H    -0.406142     -0.235806     -0.114747 
 H421  H    -0.078401     -0.352642      0.089506 
 H422  H    -0.073137     -0.240618      0.114282 
 H423  H     0.000807     -0.316454      0.152705 
loop_  
_geom_bond_atom_site_label_1  
_geom_bond_atom_site_label_2  
Cu0   Cu1 
Cu0   O4 
Cu0   O7 
Cu0   O10 
Cu0   O13 
Cu0   N82 
Cu1   O2 
Cu1   O5 
Cu1   O8 
Cu1   O11 
Cu1   N276 
O2   C3 
C3   O4 
C3   C32 
O5   C6 
C6   O7 
C6   C88 
O8   C9 
C9   O10 
C9   C177 
O11   C12 
C12   O13 
C12   C124 
Cu14   Cu15 
Cu14   O18 
Cu14   O21 
Cu14   O24 
Cu14   O27 
Cu14   N174 
Cu15   O16 
Cu15   O19 
Cu15   O22 
Cu15   O25 
Cu15   N368 
O16   C17 
C17   O18 
C17   C121 
O19   C20 
C20   O21 
C20   C180 
O22   C23 
C23   O24 
C23   C85 
O25   C26 
C26   O27 
C26   C29 
C28   C29 
C28   C33 
C28   H45 
C29   C30 
C30   C31 
C30   O34 
C31   C32 
C31   H44 
C32   C33 
C33   O39 
O34   C35 
C35   C36 
C35   H48 
C35   H49 
C36   C37 
C36   H52 
C36   H53 
C37   C38 
C37   H54 
C37   H55 
C38   H61 
C38   H62 
C38   H63 
O39   C40 
C40   C41 
C40   H46 
C40   H47 
C41   C42 
C41   H50 
C41   H51 
C42   C43 
C42   H56 
C42   H57 
C43   H58 
C43   H59 
C43   H60 
N64   C65 
N64   C66 
N64   C67 
N64   Cu213 
C65   C71 
C65   H72 
C65   H73 
C66   C68 
C66   H69 
C66   H70 
C67   C74 
C67   H75 
C67   H76 
C68   H79 
C68   H80 
C68   N82 
C71   H77 
C71   H78 
C71   N82 
C74   H81 
C74   N82 
C74   H83 
C84   C85 
C84   C89 
C84   H101 
C85   C86 
C86   C87 
C86   O90 
C87   C88 
C87   H100 
C88   C89 
C89   O95 
O90   C91 
C91   C92 
C91   H104 
C91   H105 
C92   C93 
C92   H108 
C92   H109 
C93   C94 
C93   H110 
C93   H111 
C94   H117 
C94   H118 
C94   H119 
O95   C96 
C96   C97 
C96   H102 
C96   H103 
C97   C98 
C97   H106 
C97   H107 
C98   C99 
C98   H112 
C98   H113 
C99   H114 
C99   H115 
C99   H116 
C120   C121 
C120   C125 
C120   H137 
C121   C122 
C122   C123 
C122   O126 
C123   C124 
C123   H136 
C124   C125 
C125   O131 
O126   C127 
C127   C128 
C127   H140 
C127   H141 
C128   C129 
C128   H144 
C128   H145 
C129   C130 
C129   H146 
C129   H147 
C130   H153 
C130   H154 
C130   H155 
O131   C132 
C132   C133 
C132   H138 
C132   H139 
C133   C134 
C133   H142 
C133   H143 
C134   C135 
C134   H148 
C134   H149 
C135   H150 
C135   H151 
C135   H152 
N156   C157 
N156   C158 
N156   C159 
N156   Cu227 
C157   C163 
C157   H164 
C157   H165 
C158   C160 
C158   H161 
C158   H162 
C159   C166 
C159   H167 
C159   H168 
C160   H171 
C160   H172 
C160   N174 
C163   H169 
C163   H170 
C163   N174 
C166   H173 
C166   N174 
C166   H175 
C176   C177 
C176   C181 
C176   H193 
C177   C178 
C178   C179 
C178   O182 
C179   C180 
C179   H192 
C180   C181 
C181   O187 
O182   C183 
C183   C184 
C183   H196 
C183   H197 
C184   C185 
C184   H200 
C184   H201 
C185   C186 
C185   H202 
C185   H203 
C186   H209 
C186   H210 
C186   H211 
O187   C188 
C188   C189 
C188   H194 
C188   H195 
C189   C190 
C189   H198 
C189   H199 
C190   C191 
C190   H204 
C190   H205 
C191   H206 
C191   H207 
C191   H208 
Cu212   Cu213 
Cu212   O216 
Cu212   O219 
Cu212   O222 
Cu212   O225 
Cu212   N294 
Cu213   O214 
Cu213   O217 
Cu213   O220 
Cu213   O223 
O214   C215 
C215   O216 
C215   C244 
O217   C218 
C218   O219 
C218   C300 
O220   C221 
C221   O222 
C221   C389 
O223   C224 
C224   O225 
C224   C333 
Cu226   Cu227 
Cu226   O230 
Cu226   O233 
Cu226   O236 
Cu226   O239 
Cu226   N386 
Cu227   O228 
Cu227   O231 
Cu227   O234 
Cu227   O237 
O228   C229 
C229   O230 
C229   C336 
O231   C232 
C232   O233 
C232   C392 
O234   C235 
C235   O236 
C235   C297 
O237   C238 
C238   O239 
C238   C241 
C240   C241 
C240   C245 
C240   H257 
C241   C242 
C242   C243 
C242   O246 
C243   C244 
C243   H256 
C244   C245 
C245   O251 
O246   C247 
C247   C248 
C247   H260 
C247   H261 
C248   C249 
C248   H264 
C248   H265 
C249   C250 
C249   H266 
C249   H267 
C250   H273 
C250   H274 
C250   H275 
O251   C252 
C252   C253 
C252   H258 
C252   H259 
C253   C254 
C253   H262 
C253   H263 
C254   C255 
C254   H268 
C254   H269 
C255   H270 
C255   H271 
C255   H272 
N276   C277 
N276   C278 
N276   C279 
C277   C283 
C277   H284 
C277   H285 
C278   C280 
C278   H281 
C278   H282 
C279   C286 
C279   H287 
C279   H288 
C280   H291 
C280   H292 
C280   N294 
C283   H289 
C283   H290 
C283   N294 
C286   H293 
C286   N294 
C286   H295 
C296   C297 
C296   C301 
C296   H313 
C297   C298 
C298   C299 
C298   O302 
C299   C300 
C299   H312 
C300   C301 
C301   O307 
O302   C303 
C303   C304 
C303   H316 
C303   H317 
C304   C305 
C304   H320 
C304   H321 
C305   C306 
C305   H322 
C305   H323 
C306   H329 
C306   H330 
C306   H331 
O307   C308 
C308   C309 
C308   H314 
C308   H315 
C309   C310 
C309   H318 
C309   H319 
C310   C311 
C310   H324 
C310   H325 
C311   H326 
C311   H327 
C311   H328 
C332   C333 
C332   C337 
C332   H349 
C333   C334 
C334   C335 
C334   O338 
C335   C336 
C335   H348 
C336   C337 
C337   O343 
O338   C339 
C339   C340 
C339   H352 
C339   H353 
C340   C341 
C340   H356 
C340   H357 
C341   C342 
C341   H358 
C341   H359 
C342   H365 
C342   H366 
C342   H367 
O343   C344 
C344   C345 
C344   H350 
C344   H351 
C345   C346 
C345   H354 
C345   H355 
C346   C347 
C346   H360 
C346   H361 
C347   H362 
C347   H363 
C347   H364 
N368   C369 
N368   C370 
N368   C371 
C369   C375 
C369   H376 
C369   H377 
C370   C372 
C370   H373 
C370   H374 
C371   C378 
C371   H379 
C371   H380 
C372   H383 
C372   H384 
C372   N386 
C375   H381 
C375   H382 
C375   N386 
C378   H385 
C378   N386 
C378   H387 
C388   C389 
C388   C393 
C388   H405 
C389   C390 
C390   C391 
C390   O394 
C391   C392 
C391   H404 
C392   C393 
C393   O399 
O394   C395 
C395   C396 
C395   H408 
C395   H409 
C396   C397 
C396   H412 
C396   H413 
C397   C398 
C397   H414 
C397   H415 
C398   H421 
C398   H422 
C398   H423 
O399   C400 
C400   C401 
C400   H406 
C400   H407 
C401   C402 
C401   H410 
C401   H411 
C402   C403 
C402   H416 
C402   H417 
C403   H418 
C403   H419 
C403   H420 
  
#END  
