data_
_symmetry_cell_setting           triclinic 
_symmetry_space_group_name_H-M   'P 1' 
_symmetry_Int_Tables_number      1 
loop_ 
_symmetry_equiv_pos_site_id 
_symmetry_equiv_pos_as_xyz 
1 x,y,z 
_cell_length_a             18.347848        
_cell_length_b             10.845511        
_cell_length_c             18.925338        
_cell_angle_alpha          91.797962        
_cell_angle_beta           85.049142        
_cell_angle_gamma          89.761476        
loop_  
_atom_site_label   
_atom_site_type_symbol  
_atom_site_fract_x  
_atom_site_fract_y  
_atom_site_fract_z 
 Cu0  Cu     0.001782     -0.011999      0.070795 
 Cu1  Cu     0.007245      0.003457     -0.066418 
 O2  O    -0.077517      0.110332     -0.055131 
 C3  C    -0.104016      0.142400      0.006786 
 O4  O    -0.075118      0.116223      0.064077 
 O5  O     0.082928      0.141818     -0.049125 
 C6  C     0.108259      0.153020      0.011049 
 O7  O     0.078173      0.120187      0.071201 
 O8  O    -0.063506     -0.132591     -0.060857 
 C9  C    -0.092346     -0.168344     -0.001367 
 O10  O    -0.072237     -0.138543      0.060396 
 O11  O     0.094611     -0.106159     -0.068212 
 C12  C     0.116038     -0.145028     -0.009852 
 O13  O     0.080009     -0.132178      0.050144 
 Cu14  Cu    -0.499452     -0.490567      0.062927 
 Cu15  Cu    -0.493256     -0.487791     -0.069841 
 O16  O     0.444970     -0.346397     -0.059260 
 C17  C     0.414740     -0.318077      0.001272 
 O18  O     0.443144     -0.339482      0.060544 
 O19  O    -0.407928     -0.370241     -0.057472 
 C20  C    -0.382980     -0.353789      0.002968 
 O21  O    -0.414666     -0.391815      0.060446 
 O22  O     0.424760      0.399019     -0.070934 
 C23  C     0.393188      0.375099     -0.011009 
 O24  O     0.416870      0.393594      0.049849 
 O25  O    -0.423111      0.374485     -0.062364 
 C26  C    -0.394485      0.352060     -0.006111 
 O27  O    -0.432488      0.365621      0.054961 
 C28  C    -0.311096      0.206796      0.047670 
 C29  C    -0.319606      0.306992      0.001461 
 C30  C    -0.260917      0.358549     -0.034261 
 C31  C    -0.189682      0.312900     -0.021669 
 C32  C    -0.179490      0.206008      0.016475 
 C33  C    -0.243036      0.152217      0.054161 
 O34  O    -0.268129      0.451717     -0.081143 
 C35  C    -0.207507      0.496186     -0.124178 
 C36  C    -0.236979     -0.411704     -0.171702 
 C37  C    -0.181237     -0.320553     -0.204554 
 C38  C    -0.216162     -0.231239     -0.252763 
 O39  O    -0.231013      0.053249      0.095538 
 C40  C    -0.289023     -0.014071      0.134595 
 C41  C    -0.260005     -0.110464      0.184523 
 C42  C    -0.323072     -0.181015      0.223939 
 C43  C    -0.294900     -0.272916      0.273745 
 H44  H    -0.141763      0.352114     -0.054293 
 H45  H    -0.358670      0.176941      0.081111 
 H46  H    -0.326879      0.049013      0.166271 
 H47  H    -0.321468     -0.066980      0.097853 
 H48  H    -0.173948     -0.449171     -0.094675 
 H49  H    -0.174887      0.425015     -0.152897 
 H50  H    -0.225370     -0.177895      0.155475 
 H51  H    -0.230086     -0.075435      0.229805 
 H52  H    -0.256229     -0.469099     -0.216282 
 H53  H    -0.284819     -0.359762     -0.145054 
 H54  H    -0.155661     -0.264215     -0.160543 
 H55  H    -0.135107     -0.371687     -0.233262 
 H56  H    -0.362977     -0.118520      0.255192 
 H57  H    -0.348294     -0.239310      0.181572 
 H58  H    -0.264043     -0.230141      0.317772 
 H59  H    -0.341157     -0.317597      0.304139 
 H60  H    -0.260811     -0.340778      0.244732 
 H61  H    -0.232496     -0.278504     -0.300139 
 H62  H    -0.266683     -0.190651     -0.225133 
 H63  H    -0.176025     -0.163732     -0.265419 
 N64  N     0.002277     -0.053664      0.316876 
 C65  C    -0.013783      0.074099      0.295954 
 C66  C     0.073380     -0.097875      0.285230 
 C67  C    -0.061417     -0.124254      0.286313 
 C68  C     0.067228     -0.105727      0.203756 
 H69  H     0.115112     -0.035195      0.299723 
 H70  H     0.083775     -0.189693      0.304154 
 C71  C    -0.001195      0.086211      0.216312 
 H72  H    -0.072683      0.104839      0.308983 
 H73  H     0.017210      0.151689      0.325925 
 C74  C    -0.063767     -0.103454      0.205851 
 H75  H    -0.052025     -0.225938      0.296340 
 H76  H    -0.117483     -0.098148      0.314053 
 H77  H    -0.043521      0.137834      0.189615 
 H78  H     0.050365      0.135627      0.206380 
 H79  H     0.120569     -0.078904      0.180420 
 H80  H     0.064418     -0.204738      0.189754 
 H81  H    -0.112510     -0.053582      0.201615 
 N82  N     0.002372     -0.036061      0.182525 
 H83  H    -0.071610     -0.194092      0.180376 
 C84  C     0.194963      0.309690     -0.034994 
 C85  C     0.183191      0.210342      0.005644 
 C86  C     0.241609      0.164382      0.042533 
 C87  C     0.309405      0.214279      0.037270 
 C88  C     0.321880      0.312339     -0.007135 
 C89  C     0.264210      0.361345     -0.045564 
 O90  O     0.228851      0.056334      0.076800 
 C91  C     0.274069      0.022030      0.133747 
 C92  C     0.342561     -0.051800      0.110904 
 C93  C     0.404685     -0.052213      0.160148 
 C94  C     0.444215      0.076901      0.155392 
 O95  O     0.275843      0.461965     -0.085383 
 C96  C     0.232547      0.475209     -0.143764 
 C97  C     0.170629     -0.430464     -0.126057 
 C98  C     0.108521     -0.414597     -0.179041 
 C99  C     0.042380      0.498006     -0.172668 
 H100  H     0.354705      0.187757      0.067998 
 H101  H     0.145179      0.345455     -0.057249 
 H102  H     0.268497     -0.493351     -0.189421 
 H103  H     0.210354      0.386678     -0.158787 
 H104  H     0.286909      0.108542      0.164799 
 H105  H     0.241451     -0.035664      0.170271 
 H106  H     0.135086     -0.451540     -0.078241 
 H107  H     0.193497     -0.336465     -0.122507 
 H108  H     0.325766     -0.149864      0.107124 
 H109  H     0.359593     -0.027631      0.053838 
 H110  H     0.391536     -0.073715      0.214586 
 H111  H     0.445791     -0.133741      0.139987 
 H112  H     0.080641     -0.320863     -0.175024 
 H113  H     0.136226     -0.423451     -0.236090 
 H114  H     0.010797     -0.491708     -0.120474 
 H115  H     0.003315     -0.471194     -0.210482 
 H116  H     0.054232      0.395065     -0.189283 
 H117  H     0.410649      0.149739      0.183975 
 H118  H     0.496691      0.083127      0.188040 
 H119  H     0.454776      0.108709      0.100080 
 C120  C     0.211213     -0.272456      0.044483 
 C121  C     0.195536     -0.190213     -0.007896 
 C122  C     0.253333     -0.153155     -0.057318 
 C123  C     0.326805     -0.194397     -0.054256 
 C124  C     0.337474     -0.274734     -0.000985 
 C125  C     0.282614     -0.316045      0.047757 
 O126  O     0.231248     -0.081708     -0.111390 
 C127  C     0.282751     -0.034097     -0.164703 
 C128  C     0.323035     -0.132988     -0.210105 
 C129  C     0.275439     -0.227872     -0.246878 
 C130  C     0.246639     -0.169419     -0.316058 
 O131  O     0.303137     -0.388046      0.100017 
 C132  C     0.248495     -0.458840      0.138852 
 C133  C     0.219821     -0.386498      0.202970 
 C134  C     0.280030     -0.336446      0.248737 
 C135  C     0.236529     -0.255987      0.303336 
 H136  H     0.372414     -0.154924     -0.087373 
 H137  H     0.166856     -0.302453      0.081875 
 H138  H     0.210034     -0.487867      0.100980 
 H139  H     0.278915      0.463478      0.157173 
 H140  H     0.246107      0.024667     -0.192222 
 H141  H     0.324523      0.019109     -0.137572 
 H142  H     0.192392     -0.307276      0.187780 
 H143  H     0.177062     -0.439400      0.234722 
 H144  H     0.359002     -0.092754     -0.251670 
 H145  H     0.361370     -0.186656     -0.178909 
 H146  H     0.304000     -0.316187     -0.258934 
 H147  H     0.229405     -0.243752     -0.208115 
 H148  H     0.312009     -0.408776      0.268279 
 H149  H     0.319387     -0.274125      0.222600 
 H150  H     0.187270     -0.304081      0.328641 
 H151  H     0.273219     -0.222105      0.341316 
 H152  H     0.211323     -0.180844      0.276465 
 H153  H     0.287623     -0.145427     -0.359772 
 H154  H     0.211402     -0.242549     -0.342378 
 H155  H     0.212516     -0.085325     -0.298584 
 N156  N    -0.492741     -0.491978      0.311319 
 C157  C     0.447982      0.434149      0.285395 
 C158  C     0.495600     -0.363139      0.286534 
 C159  C    -0.422664      0.457277      0.278450 
 C160  C     0.492800     -0.364730      0.204830 
 H161  H     0.447524     -0.321081      0.314474 
 H162  H    -0.459256     -0.303327      0.298756 
 C163  C     0.457090      0.425748      0.203273 
 H164  H     0.450852      0.345477      0.308769 
 H165  H     0.394906      0.466584      0.311666 
 C166  C    -0.414976      0.489952      0.199691 
 H167  H    -0.375911      0.490258      0.309977 
 H168  H    -0.429658      0.353401      0.282132 
 H169  H     0.477300      0.330853      0.182028 
 H170  H     0.401961      0.433099      0.180180 
 H171  H     0.434734     -0.359075      0.195762 
 H172  H    -0.481931     -0.289570      0.177033 
 H173  H    -0.390997      0.414867      0.168727 
 N174  N    -0.486699     -0.486857      0.176744 
 H175  H    -0.378241     -0.434789      0.193869 
 C176  C    -0.216133     -0.177081     -0.043357 
 C177  C    -0.165214     -0.235995     -0.006986 
 C178  C    -0.185803     -0.336944      0.034719 
 C179  C    -0.258608     -0.366848      0.044550 
 C180  C    -0.307393     -0.308160      0.005107 
 C181  C    -0.288383     -0.206812     -0.035774 
 O182  O    -0.137693     -0.406324      0.069498 
 C183  C    -0.066190     -0.443172      0.023114 
 C184  C    -0.024369      0.452414      0.056078 
 C185  C     0.013022      0.492051      0.121237 
 C186  C     0.033198      0.385410      0.168113 
 O187  O    -0.338578     -0.137414     -0.066370 
 C188  C    -0.388389     -0.055646     -0.019759 
 C189  C    -0.458482     -0.025968     -0.057403 
 C190  C    -0.453107      0.057246     -0.121239 
 C191  C     0.472337      0.070336     -0.149437 
 H192  H    -0.278451     -0.443398      0.076346 
 H193  H    -0.194711     -0.095074     -0.073200 
 H194  H    -0.404701     -0.098643      0.030843 
 H195  H    -0.360469      0.029866     -0.008939 
 H196  H    -0.086272     -0.473429     -0.026648 
 H197  H    -0.032466     -0.365325      0.017498 
 H198  H    -0.491315     -0.113726     -0.066291 
 H199  H    -0.488974      0.020722     -0.010712 
 H200  H    -0.072023      0.392851      0.073020 
 H201  H     0.015035      0.398319      0.022135 
 H202  H     0.063590     -0.456761      0.105212 
 H203  H    -0.024073     -0.440581      0.154815 
 H204  H    -0.432022      0.146176     -0.109787 
 H205  H    -0.420784      0.012870     -0.166831 
 H206  H     0.435166      0.127561     -0.112096 
 H207  H     0.479369      0.123486     -0.200325 
 H208  H     0.447142     -0.014869     -0.162735 
 H209  H     0.071678      0.323318      0.135219 
 H210  H     0.059370      0.419477      0.215522 
 H211  H    -0.018836      0.327614      0.185226 
 Cu212  Cu    -0.013128     -0.010006     -0.427121 
 Cu213  Cu    -0.005810     -0.003772      0.435921 
 O214  O    -0.083500      0.114721      0.444755 
 C215  C    -0.107442      0.154577     -0.494754 
 O216  O    -0.080747      0.141969     -0.434709 
 O217  O     0.063891      0.142381      0.447401 
 C218  C     0.097865      0.141560     -0.499034 
 O219  O     0.075242      0.100288     -0.438084 
 O220  O    -0.076937     -0.147279      0.444060 
 C221  C    -0.117437     -0.152857     -0.494191 
 O222  O    -0.103378     -0.104416     -0.434401 
 O223  O     0.071864     -0.124892      0.436070 
 C224  C     0.092159     -0.163360      0.497339 
 O225  O     0.058678     -0.147090     -0.441613 
 Cu226  Cu     0.485181     -0.498283     -0.436174 
 Cu227  Cu     0.498684     -0.491829      0.426670 
 O228  O     0.424903     -0.355085      0.446018 
 C229  C     0.384383     -0.357283     -0.494959 
 O230  O     0.394971     -0.415711     -0.438047 
 O231  O    -0.428356     -0.360145      0.429550 
 C232  C    -0.412987     -0.330936      0.488996 
 O233  O    -0.456573     -0.344339     -0.455218 
 O234  O     0.416317      0.379180      0.441568 
 C235  C     0.394053      0.329817      0.499557 
 O236  O     0.430494      0.335092     -0.445693 
 O237  O    -0.429649      0.368381      0.433512 
 C238  C    -0.397796      0.370014      0.490637 
 O239  O    -0.420458      0.417016     -0.447476 
 C240  C    -0.294245      0.303609     -0.441310 
 C241  C    -0.323530      0.313149      0.491831 
 C242  C    -0.277867      0.271677      0.430456 
 C243  C    -0.207348      0.225840      0.437922 
 C244  C    -0.182255      0.213188     -0.497318 
 C245  C    -0.225636      0.247367     -0.435664 
 O246  O    -0.305446      0.287500      0.366650 
 C247  C    -0.285016      0.197865      0.309712 
 C248  C    -0.217340      0.226843      0.257416 
 C249  C    -0.241293      0.332983      0.209715 
 C250  C    -0.177781      0.394141      0.165717 
 O251  O    -0.198782      0.222633     -0.374497 
 C252  C    -0.225930      0.297176     -0.315267 
 C253  C    -0.287769      0.231830     -0.269001 
 C254  C    -0.268688      0.111926     -0.236112 
 C255  C    -0.226169      0.137365     -0.170774 
 H256  H    -0.172381      0.209188      0.388132 
 H257  H    -0.330790      0.340198     -0.394306 
 H258  H    -0.180701      0.320563     -0.281842 
 H259  H    -0.244384      0.386188     -0.334874 
 H260  H    -0.273423      0.113799      0.334744 
 H261  H    -0.338782      0.188558      0.287617 
 H262  H    -0.312692      0.298182     -0.225541 
 H263  H    -0.331065      0.210711     -0.304055 
 H264  H    -0.175282      0.272193      0.289174 
 H265  H    -0.200145      0.146459      0.223394 
 H266  H    -0.282769      0.294329      0.176560 
 H267  H    -0.269326      0.406064      0.241210 
 H268  H    -0.315599      0.065955     -0.214621 
 H269  H    -0.236874      0.055024     -0.273798 
 H270  H    -0.209216      0.060439     -0.141180 
 H271  H    -0.175128      0.186828     -0.186067 
 H272  H    -0.257757      0.196412     -0.132011 
 H273  H    -0.200184      0.461432      0.130151 
 H274  H    -0.140124      0.441131      0.197218 
 H275  H    -0.147356      0.323827      0.132184 
 N276  N     0.005239      0.006470     -0.180559 
 C277  C     0.072612     -0.063159     -0.213830 
 C278  C    -0.061655     -0.052393     -0.201604 
 C279  C     0.013386      0.134017     -0.204247 
 C280  C    -0.054753     -0.065498     -0.284230 
 H281  H    -0.064547     -0.137518     -0.173496 
 H282  H    -0.112386      0.001949     -0.179720 
 C283  C     0.074818     -0.048844     -0.297820 
 H284  H     0.119378     -0.018118     -0.195560 
 H285  H     0.075843     -0.158285     -0.199344 
 C286  C    -0.001727      0.131916     -0.286114 
 H287  H    -0.023102      0.192200     -0.170355 
 H288  H     0.065681      0.171225     -0.190227 
 H289  H     0.117390      0.008139     -0.320807 
 H290  H     0.073722     -0.144499     -0.325222 
 H291  H    -0.045524     -0.157791     -0.302946 
 H292  H    -0.101517     -0.034417     -0.305763 
 H293  H     0.035517      0.200720     -0.313548 
 N294  N     0.006487      0.005296     -0.315867 
 H295  H    -0.060000      0.156507     -0.291144 
 C296  C     0.221264      0.144701     -0.453807 
 C297  C     0.175326      0.195236      0.497984 
 C298  C     0.197811      0.289911      0.454029 
 C299  C     0.269210      0.336219      0.456216 
 C300  C     0.316238      0.282928     -0.494186 
 C301  C     0.288851      0.197960     -0.446627 
 O302  O     0.155356      0.335308      0.408399 
 C303  C     0.183717      0.415656      0.353614 
 C304  C     0.247245      0.349704      0.308279 
 C305  C     0.234584      0.220181      0.281192 
 C306  C     0.172903      0.219729      0.231168 
 O307  O     0.316870      0.151857     -0.392300 
 C308  C     0.345644      0.238636     -0.343009 
 C309  C     0.309981      0.226473     -0.268247 
 C310  C     0.224463      0.228379     -0.259513 
 C311  C     0.192461      0.342850     -0.290274 
 H312  H     0.290517      0.411606      0.422880 
 H313  H     0.206716      0.063518     -0.422308 
 H314  H     0.404829      0.214187     -0.342701 
 H315  H     0.340722      0.335911     -0.358504 
 H316  H     0.139415      0.434031      0.323028 
 H317  H     0.197063     -0.489823      0.374365 
 H318  H     0.329866      0.145531     -0.247091 
 H319  H     0.330937      0.309283     -0.241222 
 H320  H     0.264666      0.403251      0.261874 
 H321  H     0.299061      0.345339      0.330897 
 H322  H     0.286651      0.177579      0.257609 
 H323  H     0.219195      0.158563      0.324724 
 H324  H     0.202382      0.140998     -0.281455 
 H325  H     0.203803      0.228940     -0.201328 
 H326  H     0.134390      0.349623     -0.278292 
 H327  H     0.227109      0.426424     -0.274164 
 H328  H     0.200453      0.333916     -0.347992 
 H329  H     0.186148      0.270835      0.185644 
 H330  H     0.165355      0.124963      0.213128 
 H331  H     0.118280      0.253442      0.259183 
 C332  C     0.229762     -0.139442      0.472807 
 C333  C     0.169418     -0.209684      0.496241 
 C334  C     0.178214     -0.317457     -0.470782 
 C335  C     0.250290     -0.368991     -0.465863 
 C336  C     0.310039     -0.303935     -0.497293 
 C337  C     0.300802     -0.188647      0.470747 
 O338  O     0.113396     -0.369002     -0.444176 
 C339  C     0.112001     -0.487764     -0.404261 
 C340  C     0.035537      0.471399     -0.390347 
 C341  C    -0.027449     -0.427184     -0.379459 
 C342  C    -0.104543     -0.480145     -0.370332 
 O343  O     0.361761     -0.114032      0.449583 
 C344  C     0.365555     -0.018808      0.399499 
 C345  C     0.437337     -0.013938      0.349242 
 C346  C    -0.490649     -0.024156      0.383182 
 C347  C    -0.487412      0.078112      0.441528 
 H348  H     0.259494     -0.456218     -0.438567 
 H349  H     0.216605     -0.048202      0.450967 
 H350  H     0.321785     -0.024062      0.365562 
 H351  H     0.356647      0.066068      0.429669 
 H352  H     0.145562      0.443132     -0.436073 
 H353  H     0.137403     -0.472468     -0.353903 
 H354  H     0.436962     -0.100201      0.315693 
 H355  H     0.433550      0.065447      0.313552 
 H356  H     0.022552      0.410763     -0.435537 
 H357  H     0.029512      0.405239     -0.349674 
 H358  H    -0.015664     -0.355046     -0.336954 
 H359  H    -0.028633     -0.382659     -0.426962 
 H360  H    -0.492434     -0.113447      0.411578 
 H361  H    -0.443210     -0.022187      0.343141 
 H362  H     0.468837      0.085492      0.483883 
 H363  H    -0.439305      0.071517      0.468121 
 H364  H    -0.485779      0.168485      0.419765 
 H365  H    -0.119557      0.476257     -0.320839 
 H366  H    -0.142979     -0.406035     -0.378063 
 H367  H    -0.111334      0.451159     -0.413616 
 N368  N    -0.487840     -0.470989     -0.185642 
 C369  C    -0.429532     -0.397964     -0.220251 
 C370  C    -0.486302      0.401584     -0.216536 
 C371  C     0.438865     -0.416940     -0.206083 
 C372  C    -0.473944      0.395909     -0.298632 
 H373  H    -0.441548      0.348749     -0.193422 
 H374  H     0.458324      0.362495     -0.197959 
 C375  C    -0.432673     -0.399821     -0.301794 
 H376  H    -0.428188     -0.301947     -0.204390 
 H377  H    -0.375523     -0.433304     -0.211400 
 C378  C     0.438578     -0.433492     -0.289467 
 H379  H     0.392047     -0.464320     -0.173427 
 H380  H     0.434101     -0.315423     -0.189967 
 H381  H    -0.439059     -0.305211     -0.322303 
 H382  H    -0.376790     -0.429835     -0.323386 
 H383  H    -0.416163      0.380128     -0.319666 
 H384  H     0.492636      0.312911     -0.316981 
 H385  H     0.424149     -0.344543     -0.308088 
 N386  N    -0.493217     -0.480776     -0.324384 
 H387  H     0.392194     -0.489273     -0.306321 
 C388  C    -0.283002     -0.338071      0.450961 
 C389  C    -0.337448     -0.283004      0.491721 
 C390  C    -0.318457     -0.194392     -0.456752 
 C391  C    -0.245143     -0.169662     -0.446627 
 C392  C    -0.192354     -0.216902     -0.494710 
 C393  C    -0.211311     -0.301343      0.453879 
 O394  O    -0.378043     -0.136368     -0.419246 
 C395  C    -0.365168     -0.049343     -0.362399 
 C396  C    -0.435104      0.028262     -0.348586 
 C397  C     0.494895     -0.044971     -0.334031 
 C398  C     0.458865     -0.096468     -0.398461 
 O399  O    -0.165836     -0.342023      0.390799 
 C400  C    -0.160027     -0.472354      0.376839 
 C401  C    -0.087952      0.494968      0.331068 
 C402  C    -0.020803     -0.455559      0.365638 
 C403  C    -0.007004      0.466633      0.428894 
 H404  H    -0.222131     -0.118378     -0.396694 
 H405  H    -0.294281     -0.402680      0.410524 
 H406  H    -0.158826      0.478816      0.427079 
 H407  H    -0.205296      0.496353      0.348307 
 H408  H    -0.343506     -0.090361     -0.317581 
 H409  H    -0.320921      0.012352     -0.381645 
 H410  H    -0.081188      0.396757      0.321319 
 H411  H    -0.089208     -0.467512      0.276422 
 H412  H    -0.428332      0.097708     -0.301189 
 H413  H    -0.438701      0.083066     -0.396084 
 H414  H    -0.499069     -0.123126     -0.297480 
 H415  H     0.454374      0.020760     -0.306241 
 H416  H     0.029404     -0.461968      0.329506 
 H417  H    -0.022717     -0.361309      0.388259 
 H418  H    -0.046032      0.482754      0.473744 
 H419  H    -0.008476      0.363836      0.412807 
 H420  H     0.043219      0.488757      0.446632 
 H421  H     0.439569     -0.023295     -0.429610 
 H422  H     0.499295     -0.148806     -0.432013 
 H423  H     0.410201     -0.160593     -0.386882 
loop_  
_geom_bond_atom_site_label_1  
_geom_bond_atom_site_label_2  
Cu0   Cu1 
Cu0   O4 
Cu0   O7 
Cu0   O10 
Cu0   O13 
Cu0   N82 
Cu1   O2 
Cu1   O5 
Cu1   O8 
Cu1   O11 
Cu1   N276 
O2   C3 
C3   O4 
C3   C32 
O5   C6 
C6   O7 
C6   C85 
O8   C9 
C9   O10 
C9   C177 
O11   C12 
C12   O13 
C12   C121 
Cu14   Cu15 
Cu14   O18 
Cu14   O21 
Cu14   O24 
Cu14   O27 
Cu14   N174 
Cu15   O16 
Cu15   O19 
Cu15   O22 
Cu15   O25 
Cu15   N368 
O16   C17 
C17   O18 
C17   C124 
O19   C20 
C20   O21 
C20   C180 
O22   C23 
C23   O24 
C23   C88 
O25   C26 
C26   O27 
C26   C29 
C28   C29 
C28   C33 
C28   H45 
C29   C30 
C30   C31 
C30   O34 
C31   C32 
C31   H44 
C32   C33 
C33   O39 
O34   C35 
C35   C36 
C35   H48 
C35   H49 
C36   C37 
C36   H52 
C36   H53 
C37   C38 
C37   H54 
C37   H55 
C38   H61 
C38   H62 
C38   H63 
O39   C40 
C40   C41 
C40   H46 
C40   H47 
C41   C42 
C41   H50 
C41   H51 
C42   C43 
C42   H56 
C42   H57 
C43   H58 
C43   H59 
C43   H60 
N64   C65 
N64   C66 
N64   C67 
N64   Cu213 
C65   C71 
C65   H72 
C65   H73 
C66   C68 
C66   H69 
C66   H70 
C67   C74 
C67   H75 
C67   H76 
C68   H79 
C68   H80 
C68   N82 
C71   H77 
C71   H78 
C71   N82 
C74   H81 
C74   N82 
C74   H83 
C84   C85 
C84   C89 
C84   H101 
C85   C86 
C86   C87 
C86   O90 
C87   C88 
C87   H100 
C88   C89 
C89   O95 
O90   C91 
C91   C92 
C91   H104 
C91   H105 
C92   C93 
C92   H108 
C92   H109 
C93   C94 
C93   H110 
C93   H111 
C94   H117 
C94   H118 
C94   H119 
O95   C96 
C96   C97 
C96   H102 
C96   H103 
C97   C98 
C97   H106 
C97   H107 
C98   C99 
C98   H112 
C98   H113 
C99   H114 
C99   H115 
C99   H116 
C120   C121 
C120   C125 
C120   H137 
C121   C122 
C122   C123 
C122   O126 
C123   C124 
C123   H136 
C124   C125 
C125   O131 
O126   C127 
C127   C128 
C127   H140 
C127   H141 
C128   C129 
C128   H144 
C128   H145 
C129   C130 
C129   H146 
C129   H147 
C130   H153 
C130   H154 
C130   H155 
O131   C132 
C132   C133 
C132   H138 
C132   H139 
C133   C134 
C133   H142 
C133   H143 
C134   C135 
C134   H148 
C134   H149 
C135   H150 
C135   H151 
C135   H152 
N156   C157 
N156   C158 
N156   C159 
N156   Cu227 
C157   C163 
C157   H164 
C157   H165 
C158   C160 
C158   H161 
C158   H162 
C159   C166 
C159   H167 
C159   H168 
C160   H171 
C160   H172 
C160   N174 
C163   H169 
C163   H170 
C163   N174 
C166   H173 
C166   N174 
C166   H175 
C176   C177 
C176   C181 
C176   H193 
C177   C178 
C178   C179 
C178   O182 
C179   C180 
C179   H192 
C180   C181 
C181   O187 
O182   C183 
C183   C184 
C183   H196 
C183   H197 
C184   C185 
C184   H200 
C184   H201 
C185   C186 
C185   H202 
C185   H203 
C186   H209 
C186   H210 
C186   H211 
O187   C188 
C188   C189 
C188   H194 
C188   H195 
C189   C190 
C189   H198 
C189   H199 
C190   C191 
C190   H204 
C190   H205 
C191   H206 
C191   H207 
C191   H208 
Cu212   Cu213 
Cu212   O216 
Cu212   O219 
Cu212   O222 
Cu212   O225 
Cu212   N294 
Cu213   O214 
Cu213   O217 
Cu213   O220 
Cu213   O223 
O214   C215 
C215   O216 
C215   C244 
O217   C218 
C218   O219 
C218   C297 
O220   C221 
C221   O222 
C221   C392 
O223   C224 
C224   O225 
C224   C333 
Cu226   Cu227 
Cu226   O230 
Cu226   O233 
Cu226   O236 
Cu226   O239 
Cu226   N386 
Cu227   O228 
Cu227   O231 
Cu227   O234 
Cu227   O237 
O228   C229 
C229   O230 
C229   C336 
O231   C232 
C232   O233 
C232   C389 
O234   C235 
C235   O236 
C235   C300 
O237   C238 
C238   O239 
C238   C241 
C240   C241 
C240   C245 
C240   H257 
C241   C242 
C242   C243 
C242   O246 
C243   C244 
C243   H256 
C244   C245 
C245   O251 
O246   C247 
C247   C248 
C247   H260 
C247   H261 
C248   C249 
C248   H264 
C248   H265 
C249   C250 
C249   H266 
C249   H267 
C250   H273 
C250   H274 
C250   H275 
O251   C252 
C252   C253 
C252   H258 
C252   H259 
C253   C254 
C253   H262 
C253   H263 
C254   C255 
C254   H268 
C254   H269 
C255   H270 
C255   H271 
C255   H272 
N276   C277 
N276   C278 
N276   C279 
C277   C283 
C277   H284 
C277   H285 
C278   C280 
C278   H281 
C278   H282 
C279   C286 
C279   H287 
C279   H288 
C280   H291 
C280   H292 
C280   N294 
C283   H289 
C283   H290 
C283   N294 
C286   H293 
C286   N294 
C286   H295 
C296   C297 
C296   C301 
C296   H313 
C297   C298 
C298   C299 
C298   O302 
C299   C300 
C299   H312 
C300   C301 
C301   O307 
O302   C303 
C303   C304 
C303   H316 
C303   H317 
C304   C305 
C304   H320 
C304   H321 
C305   C306 
C305   H322 
C305   H323 
C306   H329 
C306   H330 
C306   H331 
O307   C308 
C308   C309 
C308   H314 
C308   H315 
C309   C310 
C309   H318 
C309   H319 
C310   C311 
C310   H324 
C310   H325 
C311   H326 
C311   H327 
C311   H328 
C332   C333 
C332   C337 
C332   H349 
C333   C334 
C334   C335 
C334   O338 
C335   C336 
C335   H348 
C336   C337 
C337   O343 
O338   C339 
C339   C340 
C339   H352 
C339   H353 
C340   C341 
C340   H356 
C340   H357 
C341   C342 
C341   H358 
C341   H359 
C342   H365 
C342   H366 
C342   H367 
O343   C344 
C344   C345 
C344   H350 
C344   H351 
C345   C346 
C345   H354 
C345   H355 
C346   C347 
C346   H360 
C346   H361 
C347   H362 
C347   H363 
C347   H364 
N368   C369 
N368   C370 
N368   C371 
C369   C375 
C369   H376 
C369   H377 
C370   C372 
C370   H373 
C370   H374 
C371   C378 
C371   H379 
C371   H380 
C372   H383 
C372   H384 
C372   N386 
C375   H381 
C375   H382 
C375   N386 
C378   H385 
C378   N386 
C378   H387 
C388   C389 
C388   C393 
C388   H405 
C389   C390 
C390   C391 
C390   O394 
C391   C392 
C391   H404 
C392   C393 
C393   O399 
O394   C395 
C395   C396 
C395   H408 
C395   H409 
C396   C397 
C396   H412 
C396   H413 
C397   C398 
C397   H414 
C397   H415 
C398   H421 
C398   H422 
C398   H423 
O399   C400 
C400   C401 
C400   H406 
C400   H407 
C401   C402 
C401   H410 
C401   H411 
C402   C403 
C402   H416 
C402   H417 
C403   H418 
C403   H419 
C403   H420 
  
#END  
