data_
_symmetry_cell_setting           triclinic 
_symmetry_space_group_name_H-M   'P 1' 
_symmetry_Int_Tables_number      1 
loop_ 
_symmetry_equiv_pos_site_id 
_symmetry_equiv_pos_as_xyz 
1 x,y,z 
_cell_length_a             14.925806        
_cell_length_b             15.978309        
_cell_length_c             19.100768        
_cell_angle_alpha          91.413153        
_cell_angle_beta           92.535578        
_cell_angle_gamma          89.982171        
loop_  
_atom_site_label   
_atom_site_type_symbol  
_atom_site_fract_x  
_atom_site_fract_y  
_atom_site_fract_z 
 Cu0  Cu     0.001221      0.000980      0.068227 
 Cu1  Cu    -0.001149      0.000417     -0.068231 
 O2  O    -0.091730      0.091821     -0.060446 
 C3  C    -0.115815      0.119777     -0.001123 
 O4  O    -0.087852      0.093846      0.058487 
 O5  O     0.093904      0.086505     -0.052667 
 C6  C     0.124680      0.112017      0.007367 
 O7  O     0.101613      0.083667      0.065651 
 O8  O    -0.095600     -0.087672     -0.064070 
 C9  C    -0.123771     -0.111509     -0.005760 
 O10  O    -0.100305     -0.079248      0.053902 
 O11  O     0.094327     -0.086933     -0.059368 
 C12  C     0.115632     -0.119186     -0.000636 
 O13  O     0.085846     -0.096081      0.058320 
 Cu14  Cu    -0.498878     -0.499934      0.068152 
 Cu15  Cu     0.498736      0.499554     -0.068304 
 O16  O     0.414110     -0.403386     -0.058367 
 C17  C     0.384347     -0.380288      0.000599 
 O18  O     0.405660     -0.412565      0.059320 
 O19  O    -0.399744     -0.420219     -0.053972 
 C20  C    -0.376264     -0.387982      0.005694 
 O21  O    -0.404415     -0.411847      0.064003 
 O22  O     0.398351      0.416853     -0.065730 
 C23  C     0.375262      0.388508     -0.007450 
 O24  O     0.406045      0.414002      0.052587 
 O25  O    -0.412179      0.406695     -0.058599 
 C26  C    -0.384231      0.380720      0.001000 
 O27  O    -0.408317      0.408646      0.060332 
 C28  C    -0.235768      0.326216     -0.032970 
 C29  C    -0.315601      0.312388      0.000683 
 C30  C    -0.331211      0.235983      0.032446 
 C31  C    -0.264348      0.174213      0.032733 
 C32  C    -0.184466      0.188088     -0.000837 
 C33  C    -0.168824      0.264521     -0.032543 
 O34  O    -0.411002      0.222572      0.062879 
 C35  C    -0.460082      0.150815      0.035703 
 C36  C     0.463360      0.130958      0.082515 
 C37  C     0.420336      0.045627      0.063578 
 C38  C     0.347590      0.018498      0.112404 
 O39  O    -0.089000      0.277950     -0.062921 
 C40  C    -0.040007      0.349779     -0.035794 
 C41  C     0.036580      0.369594     -0.082591 
 C42  C     0.079646      0.454907     -0.063665 
 C43  C     0.152422      0.481982     -0.112486 
 H44  H    -0.275231      0.115188      0.058430 
 H45  H    -0.224906      0.385214     -0.058713 
 H46  H    -0.085069      0.404015     -0.031868 
 H47  H    -0.014149      0.335954      0.017644 
 H48  H    -0.485978      0.164736     -0.017705 
 H49  H    -0.415067      0.096556      0.031692 
 H50  H     0.087412      0.320025     -0.077885 
 H51  H     0.012410      0.368819     -0.137886 
 H52  H     0.487551      0.131724      0.137805 
 H53  H     0.412503      0.180507      0.077827 
 H54  H     0.391712      0.047115      0.009471 
 H55  H     0.473457     -0.002151      0.064132 
 H56  H     0.026553     -0.497287     -0.064234 
 H57  H     0.108258      0.453418     -0.009554 
 H58  H     0.178488     -0.455498     -0.097355 
 H59  H     0.209680      0.438928     -0.110452 
 H60  H     0.126401      0.484535     -0.167119 
 H61  H     0.321569     -0.044038      0.097272 
 H62  H     0.373623      0.015952      0.167034 
 H63  H     0.290298      0.061512      0.110376 
 N64  N     0.008736      0.011396      0.318785 
 C65  C     0.094726     -0.019680      0.292552 
 C66  C    -0.063955     -0.042624      0.288309 
 C67  C    -0.005488      0.097284      0.293257 
 C68  C    -0.067328     -0.039713      0.206645 
 H69  H    -0.051911     -0.107054      0.305609 
 H70  H    -0.128487     -0.022765      0.309148 
 C71  C     0.092521     -0.020451      0.210632 
 H72  H     0.149471      0.020397      0.314825 
 H73  H     0.107642     -0.083105      0.311992 
 C74  C    -0.005304      0.098311      0.211422 
 H75  H    -0.069573      0.121209      0.312050 
 H76  H     0.047408      0.138566      0.316725 
 H77  H     0.147661      0.017310      0.191460 
 H78  H     0.102107     -0.084511      0.189723 
 H79  H    -0.062821     -0.103220      0.183473 
 H80  H    -0.131678     -0.013590      0.187090 
 H81  H     0.049220      0.138234      0.193974 
 N82  N     0.006163      0.012591      0.182128 
 H83  H    -0.068390      0.124944      0.189609 
 C84  C     0.283291      0.293247      0.059679 
 C85  C     0.308004      0.318342     -0.006603 
 C86  C     0.272683      0.276661     -0.067384 
 C87  C     0.216472      0.207409     -0.059778 
 C88  C     0.191890      0.182222      0.006511 
 C89  C     0.227296      0.223844      0.067291 
 O90  O     0.292941      0.303070     -0.132804 
 C91  C     0.233576      0.278501     -0.191268 
 C92  C     0.242536      0.338223     -0.251261 
 C93  C     0.172349      0.322934     -0.311527 
 C94  C     0.174090      0.389607     -0.367816 
 O95  O     0.207153      0.197352      0.132710 
 C96  C     0.266490      0.222011      0.191164 
 C97  C     0.257623      0.162281      0.251163 
 C98  C     0.327815      0.177635      0.311413 
 C99  C     0.326127      0.110987      0.367727 
 H100  H     0.190659      0.173495     -0.106627 
 H101  H     0.309029      0.327208      0.106528 
 H102  H     0.336374      0.221889      0.174920 
 H103  H     0.249341      0.286011      0.208320 
 H104  H     0.250622      0.214476     -0.208426 
 H105  H     0.163687      0.278728     -0.175033 
 H106  H     0.190022      0.167563      0.271647 
 H107  H     0.264423      0.097496      0.231282 
 H108  H     0.235792      0.403012     -0.231375 
 H109  H     0.310141      0.332880     -0.271729 
 H110  H     0.183270      0.260718     -0.335771 
 H111  H     0.104919      0.321208     -0.290407 
 H112  H     0.395238      0.179386      0.290282 
 H113  H     0.316863      0.239856      0.335638 
 H114  H     0.375585      0.125056      0.410767 
 H115  H     0.259936      0.107484      0.390456 
 H116  H     0.341565      0.048513      0.346091 
 H117  H     0.124634      0.375582     -0.410867 
 H118  H     0.158685      0.452080     -0.346162 
 H119  H     0.240289      0.393087     -0.390536 
 C120  C     0.230945     -0.329678      0.024438 
 C121  C     0.316236     -0.311198      0.001342 
 C122  C     0.336830     -0.231063     -0.021753 
 C123  C     0.269093     -0.169737     -0.024346 
 C124  C     0.183766     -0.188256     -0.001345 
 C125  C     0.163151     -0.268413      0.021686 
 O126  O     0.423625     -0.216101     -0.038900 
 C127  C     0.447020     -0.132497     -0.056474 
 C128  C    -0.451814     -0.123396     -0.060357 
 C129  C    -0.424661     -0.040274     -0.092529 
 C130  C    -0.323225     -0.024621     -0.089696 
 O131  O     0.076328     -0.283405      0.038744 
 C132  C     0.052960     -0.366993      0.056379 
 C133  C    -0.048209     -0.376118      0.060222 
 C134  C    -0.075359     -0.459225      0.092421 
 C135  C    -0.176792     -0.474894      0.089574 
 H136  H     0.282372     -0.106891     -0.042694 
 H137  H     0.217678     -0.392503      0.042835 
 H138  H     0.077428     -0.410252      0.016013 
 H139  H     0.087324     -0.382058      0.106612 
 H140  H     0.412619     -0.117359     -0.106676 
 H141  H     0.422613     -0.089274     -0.016058 
 H142  H    -0.075521     -0.323465      0.090807 
 H143  H    -0.079456     -0.371651      0.007077 
 H144  H    -0.420536     -0.127903     -0.007225 
 H145  H    -0.424534     -0.176037     -0.090974 
 H146  H    -0.450205     -0.039215     -0.147469 
 H147  H    -0.458082      0.011800     -0.065502 
 H148  H    -0.041920      0.488692      0.065422 
 H149  H    -0.049834     -0.460249      0.147368 
 H150  H    -0.193027      0.464845      0.112532 
 H151  H    -0.212194     -0.425808      0.118664 
 H152  H    -0.204699     -0.476255      0.035326 
 H153  H    -0.306988      0.035652     -0.112632 
 H154  H    -0.295302     -0.023292     -0.035453 
 H155  H    -0.287841     -0.073697     -0.118811 
 N156  N    -0.488541      0.494652      0.318990 
 C157  C     0.459253      0.422649      0.288718 
 C158  C     0.472591     -0.427344      0.290850 
 C159  C    -0.396042      0.487260      0.294666 
 C160  C     0.467368     -0.430780      0.209008 
 H161  H     0.405643     -0.417154      0.311210 
 H162  H    -0.485615     -0.374369      0.310704 
 C163  C     0.462818      0.419609      0.207018 
 H164  H     0.485720      0.364202      0.311215 
 H165  H     0.389278      0.428382      0.304391 
 C166  C    -0.395659      0.490736      0.212835 
 H167  H    -0.354150     -0.462401      0.319338 
 H168  H    -0.367444      0.427641      0.312998 
 H169  H     0.496378      0.362107      0.188651 
 H170  H     0.394325      0.418605      0.183030 
 H171  H     0.396745     -0.431319      0.189501 
 H172  H     0.498517     -0.375090      0.187458 
 H173  H    -0.360183      0.436197      0.190943 
 N174  N    -0.488414      0.493007      0.182066 
 H175  H    -0.359658     -0.453185      0.196643 
 C176  C    -0.273958     -0.298579     -0.059442 
 C177  C    -0.310638     -0.316248      0.004909 
 C178  C    -0.287169     -0.267114      0.064969 
 C179  C    -0.226104     -0.200888      0.059378 
 C180  C    -0.189405     -0.183235     -0.004970 
 C181  C    -0.212863     -0.232378     -0.065027 
 O182  O    -0.323923     -0.285210      0.127531 
 C183  C    -0.321735     -0.221237      0.181516 
 C184  C    -0.378851     -0.245819      0.241651 
 C185  C    -0.376925     -0.180939      0.302535 
 C186  C    -0.439987     -0.202425      0.360788 
 O187  O    -0.176097     -0.214293     -0.127587 
 C188  C    -0.178317     -0.278260     -0.181578 
 C189  C    -0.121217     -0.253685     -0.241724 
 C190  C    -0.123190     -0.318550     -0.302620 
 C191  C    -0.060163     -0.297058     -0.360895 
 H192  H    -0.206467     -0.163063      0.105878 
 H193  H    -0.293605     -0.336396     -0.105944 
 H194  H    -0.151474     -0.335582     -0.157888 
 H195  H    -0.248096     -0.289252     -0.200800 
 H196  H    -0.251964     -0.210228      0.200750 
 H197  H    -0.348587     -0.163921      0.157820 
 H198  H    -0.143844     -0.192736     -0.261552 
 H199  H    -0.051416     -0.245566     -0.221614 
 H200  H    -0.448642     -0.253963      0.221525 
 H201  H    -0.356211     -0.306757      0.261495 
 H202  H    -0.307873     -0.174893      0.324974 
 H203  H    -0.395152     -0.119021      0.282254 
 H204  H    -0.104957     -0.380475     -0.282357 
 H205  H    -0.192255     -0.324583     -0.325034 
 H206  H    -0.064601     -0.344216     -0.403795 
 H207  H    -0.076917     -0.236231     -0.383603 
 H208  H     0.010149     -0.294107     -0.341253 
 H209  H    -0.435582     -0.155256      0.403681 
 H210  H     0.489712     -0.205388      0.341120 
 H211  H    -0.423241     -0.263244      0.383513 
 Cu212  Cu     0.001850      0.003177     -0.432683 
 Cu213  Cu    -0.000507     -0.001762      0.431017 
 O214  O    -0.103805      0.077040      0.438943 
 C215  C    -0.121053      0.113868      0.496717 
 O216  O    -0.084992      0.096392     -0.443619 
 O217  O     0.080889      0.096328      0.443085 
 C218  C     0.117204      0.118797     -0.497861 
 O219  O     0.102700      0.085708     -0.439319 
 O220  O    -0.082210     -0.100065      0.436740 
 C221  C    -0.117389     -0.116766      0.494272 
 O222  O    -0.099571     -0.078681     -0.447177 
 O223  O     0.102876     -0.079994      0.442749 
 C224  C     0.122427     -0.112424     -0.498215 
 O225  O     0.089132     -0.090204     -0.440378 
 Cu226  Cu    -0.499420     -0.497746     -0.431098 
 Cu227  Cu     0.498194      0.497278      0.432601 
 O228  O     0.410874     -0.409374      0.440288 
 C229  C     0.377607     -0.387126      0.498129 
 O230  O     0.397180     -0.419535     -0.442830 
 O231  O    -0.400427     -0.420812      0.447068 
 C232  C    -0.382605     -0.382711     -0.494389 
 O233  O    -0.417749     -0.399422     -0.436845 
 O234  O     0.397390      0.414704      0.439261 
 C235  C     0.382897      0.381635      0.497814 
 O236  O     0.419204      0.404142     -0.443140 
 O237  O    -0.414924      0.404099      0.443535 
 C238  C    -0.378865      0.386627     -0.496799 
 O239  O    -0.396107      0.423464     -0.439028 
 C240  C    -0.301324      0.271938      0.440105 
 C241  C    -0.311883      0.316042     -0.496542 
 C242  C    -0.260194      0.294637     -0.436369 
 C243  C    -0.198595      0.228555     -0.440188 
 C244  C    -0.188048      0.184442      0.496462 
 C245  C    -0.239757      0.205829      0.436294 
 O246  O    -0.271842      0.338426     -0.375122 
 C247  C    -0.202483      0.336492     -0.320976 
 C248  C    -0.224005      0.406129     -0.269091 
 C249  C    -0.152571      0.419418     -0.209872 
 C250  C    -0.175921      0.492719     -0.160957 
 O251  O    -0.228138      0.162014      0.375054 
 C252  C    -0.297499      0.163961      0.320909 
 C253  C    -0.275979      0.094338      0.269010 
 C254  C    -0.347392      0.081089      0.209768 
 C255  C    -0.324016      0.007831      0.160817 
 H256  H    -0.159035      0.211415     -0.393315 
 H257  H    -0.340873      0.289087      0.393229 
 H258  H    -0.363318      0.153736      0.343338 
 H259  H    -0.298038      0.225267      0.295705 
 H260  H    -0.201943      0.275192     -0.295763 
 H261  H    -0.136664      0.346715     -0.343405 
 H262  H    -0.211213      0.107547      0.246188 
 H263  H    -0.267539      0.035588      0.297619 
 H264  H    -0.232471      0.464865     -0.297718 
 H265  H    -0.288758      0.392917     -0.246249 
 H266  H    -0.144999      0.361672     -0.179926 
 H267  H    -0.087321      0.431264     -0.232547 
 H268  H    -0.412650      0.069219      0.232420 
 H269  H    -0.354957      0.138858      0.179852 
 H270  H    -0.377936     -0.005323      0.121082 
 H271  H    -0.262283      0.019587      0.133395 
 H272  H    -0.312612     -0.048717      0.191223 
 H273  H    -0.121981     -0.494096     -0.121245 
 H274  H    -0.187336     -0.450763     -0.191398 
 H275  H    -0.237640      0.480995     -0.133507 
 N276  N    -0.011623      0.007450     -0.182148 
 C277  C     0.032588     -0.068770     -0.209083 
 C278  C    -0.104374      0.009731     -0.212927 
 C279  C     0.037158      0.080839     -0.207101 
 C280  C    -0.103980      0.013204     -0.294758 
 H281  H    -0.140385     -0.046343     -0.196735 
 H282  H    -0.139845      0.064276     -0.191039 
 C283  C     0.027367     -0.072216     -0.290926 
 H284  H     0.103211     -0.068234     -0.189575 
 H285  H     0.001435     -0.124454     -0.187528 
 C286  C     0.040738      0.077790     -0.288799 
 H287  H     0.003601      0.138347     -0.188742 
 H288  H     0.105648      0.081840     -0.183106 
 H289  H     0.094310     -0.082431     -0.311286 
 H290  H    -0.014445     -0.125181     -0.310776 
 H291  H    -0.145880     -0.037128     -0.319433 
 H292  H    -0.132562      0.072827     -0.313094 
 H293  H     0.110716      0.072044     -0.304464 
 N294  N    -0.011478      0.005794     -0.319074 
 H295  H     0.014288      0.136240     -0.311303 
 C296  C     0.237672      0.318371      0.455222 
 C297  C     0.316210      0.311292      0.497495 
 C298  C     0.330230      0.242578     -0.458770 
 C299  C     0.262502      0.181975     -0.455327 
 C300  C     0.183912      0.189120     -0.497528 
 C301  C     0.169846      0.257890      0.458810 
 O302  O     0.410974      0.237726     -0.421943 
 C303  C     0.433425      0.163432     -0.384458 
 C304  C    -0.467834      0.168617     -0.360969 
 C305  C    -0.434956      0.093171     -0.318566 
 C306  C    -0.334357      0.096290     -0.298709 
 O307  O     0.089031      0.262824      0.422095 
 C308  C     0.066584      0.337142      0.384643 
 C309  C    -0.032229      0.332097      0.361350 
 C310  C    -0.065084      0.407544      0.318939 
 C311  C    -0.165748      0.404615      0.299307 
 H312  H     0.271648      0.128013     -0.421720 
 H313  H     0.228551      0.372292      0.421566 
 H314  H     0.079177      0.392736      0.418994 
 H315  H     0.109320      0.340906      0.339228 
 H316  H     0.390545      0.159590     -0.339133 
 H317  H     0.421034      0.107829     -0.418838 
 H318  H    -0.044749      0.274276      0.329879 
 H319  H    -0.072652      0.326734      0.407977 
 H320  H    -0.427270      0.174118     -0.407505 
 H321  H    -0.455525      0.226414     -0.329424 
 H322  H    -0.472727      0.089948     -0.270473 
 H323  H    -0.450195      0.035111     -0.349020 
 H324  H    -0.049601      0.465616      0.349306 
 H325  H    -0.027483      0.410613      0.270752 
 H326  H    -0.186545      0.459481      0.269029 
 H327  H    -0.183317      0.348405      0.267274 
 H328  H    -0.205510      0.403846      0.346404 
 H329  H    -0.313529      0.041409     -0.268461 
 H330  H    -0.294428      0.097245     -0.345709 
 H331  H    -0.317037      0.152478     -0.266568 
 C332  C     0.201523     -0.227173      0.438679 
 C333  C     0.188901     -0.183317     -0.498061 
 C334  C     0.238292     -0.204999     -0.436823 
 C335  C     0.298592     -0.272314     -0.438782 
 C336  C     0.311151     -0.316220      0.497973 
 C337  C     0.261716     -0.294575      0.436746 
 O338  O     0.225535     -0.161210     -0.375685 
 C339  C     0.304138     -0.130891     -0.337421 
 C340  C     0.274724     -0.068248     -0.281756 
 C341  C     0.351874     -0.021247     -0.242223 
 C342  C     0.320190      0.034759     -0.181891 
 O343  O     0.274428     -0.338412      0.375625 
 C344  C     0.195804     -0.368671      0.337356 
 C345  C     0.225188     -0.431318      0.281682 
 C346  C     0.148016     -0.478273      0.242137 
 C347  C     0.179680      0.465713      0.181803 
 H348  H     0.335239     -0.290036     -0.390718 
 H349  H     0.164912     -0.209428      0.390606 
 H350  H     0.150706     -0.397814      0.373917 
 H351  H     0.160822     -0.315616      0.312788 
 H352  H     0.339157     -0.183920     -0.312844 
 H353  H     0.349215     -0.101730     -0.373987 
 H354  H     0.264968     -0.398168      0.243823 
 H355  H     0.269894     -0.477617      0.306860 
 H356  H     0.229993     -0.021975     -0.306941 
 H357  H     0.234965     -0.101408     -0.243889 
 H358  H     0.401408     -0.066206     -0.221538 
 H359  H     0.387058      0.017022     -0.279462 
 H360  H     0.112800      0.483470      0.279366 
 H361  H     0.098514     -0.433285      0.221450 
 H362  H     0.123355      0.431786      0.155135 
 H363  H     0.212644     -0.497610      0.142307 
 H364  H     0.228260      0.419221      0.201107 
 H365  H     0.376501      0.068715     -0.155232 
 H366  H     0.271581      0.081227     -0.201193 
 H367  H     0.287253     -0.001930     -0.142389 
 N368  N     0.493875      0.487980     -0.182204 
 C369  C    -0.494666      0.402258     -0.211496 
 C370  C     0.407525     -0.478967     -0.210712 
 C371  C    -0.432623     -0.459727     -0.206718 
 C372  C     0.405329     -0.479740     -0.292632 
 H373  H     0.352377      0.483282     -0.191543 
 H374  H     0.397948     -0.414904     -0.189804 
 C375  C    -0.494476      0.403284     -0.293330 
 H376  H    -0.431585      0.375619     -0.189682 
 H377  H     0.450804      0.362341     -0.194050 
 C378  C    -0.435987     -0.456819     -0.288383 
 H379  H    -0.437123     -0.396219     -0.183547 
 H380  H    -0.368280     -0.485858     -0.187157 
 H381  H    -0.430394      0.379350     -0.312121 
 H382  H     0.452621      0.362012     -0.316797 
 H383  H     0.350580      0.480191     -0.314907 
 H384  H     0.392424     -0.416314     -0.312075 
 H385  H    -0.371456     -0.476689     -0.309218 
 N386  N     0.491316      0.489171     -0.318861 
 H387  H    -0.448018     -0.392390     -0.305688 
 C388  C    -0.256506     -0.314156      0.449162 
 C389  C    -0.314098     -0.313420     -0.495016 
 C390  C    -0.308185     -0.248347     -0.444116 
 C391  C    -0.243567     -0.185258     -0.449329 
 C392  C    -0.185938     -0.186023      0.494873 
 C393  C    -0.191840     -0.251104      0.443980 
 O394  O    -0.365264     -0.246739     -0.390121 
 C395  C    -0.387186     -0.166273     -0.360614 
 C396  C    -0.467811     -0.177667     -0.316305 
 C397  C    -0.446263     -0.221802     -0.247156 
 C398  C     0.469475     -0.250369     -0.211398 
 O399  O    -0.134739     -0.252721      0.390001 
 C400  C    -0.112835     -0.333185      0.360486 
 C401  C    -0.032196     -0.321795      0.316190 
 C402  C    -0.053717     -0.277647      0.247043 
 C403  C     0.030560     -0.249080      0.211305 
 H404  H    -0.237651     -0.135406     -0.409268 
 H405  H    -0.262432     -0.363995      0.409090 
 H406  H    -0.097394     -0.377020      0.403060 
 H407  H    -0.170095     -0.358171      0.328077 
 H408  H    -0.329925     -0.141268     -0.328217 
 H409  H    -0.402650     -0.122450     -0.403193 
 H410  H     0.018744     -0.285623      0.347557 
 H411  H    -0.002526     -0.383415      0.304811 
 H412  H    -0.497490     -0.116051     -0.304927 
 H413  H     0.481249     -0.213851     -0.347660 
 H414  H    -0.402673     -0.275941     -0.256886 
 H415  H    -0.406679     -0.179338     -0.211648 
 H416  H    -0.093293     -0.320102      0.211523 
 H417  H    -0.097305     -0.223505      0.256770 
 H418  H     0.013683     -0.218538      0.161493 
 H419  H     0.069614     -0.204614      0.245023 
 H420  H     0.074979     -0.301738      0.199691 
 H421  H     0.486369     -0.280918     -0.161593 
 H422  H     0.425066     -0.197709     -0.199768 
 H423  H     0.430405     -0.294828     -0.245111 
loop_  
_geom_bond_atom_site_label_1  
_geom_bond_atom_site_label_2  
Cu0   Cu1 
Cu0   O4 
Cu0   O7 
Cu0   O10 
Cu0   O13 
Cu0   N82 
Cu1   O2 
Cu1   O5 
Cu1   O8 
Cu1   O11 
Cu1   N276 
O2   C3 
C3   O4 
C3   C32 
O5   C6 
C6   O7 
C6   C88 
O8   C9 
C9   O10 
C9   C180 
O11   C12 
C12   O13 
C12   C124 
Cu14   Cu15 
Cu14   O18 
Cu14   O21 
Cu14   O24 
Cu14   O27 
Cu14   N174 
Cu15   O16 
Cu15   O19 
Cu15   O22 
Cu15   O25 
Cu15   N368 
O16   C17 
C17   O18 
C17   C121 
O19   C20 
C20   O21 
C20   C177 
O22   C23 
C23   O24 
C23   C85 
O25   C26 
C26   O27 
C26   C29 
C28   C29 
C28   C33 
C28   H45 
C29   C30 
C30   C31 
C30   O34 
C31   C32 
C31   H44 
C32   C33 
C33   O39 
O34   C35 
C35   C36 
C35   H48 
C35   H49 
C36   C37 
C36   H52 
C36   H53 
C37   C38 
C37   H54 
C37   H55 
C38   H61 
C38   H62 
C38   H63 
O39   C40 
C40   C41 
C40   H46 
C40   H47 
C41   C42 
C41   H50 
C41   H51 
C42   C43 
C42   H56 
C42   H57 
C43   H58 
C43   H59 
C43   H60 
N64   C65 
N64   C66 
N64   C67 
N64   Cu213 
C65   C71 
C65   H72 
C65   H73 
C66   C68 
C66   H69 
C66   H70 
C67   C74 
C67   H75 
C67   H76 
C68   H79 
C68   H80 
C68   N82 
C71   H77 
C71   H78 
C71   N82 
C74   H81 
C74   N82 
C74   H83 
C84   C85 
C84   C89 
C84   H101 
C85   C86 
C86   C87 
C86   O90 
C87   C88 
C87   H100 
C88   C89 
C89   O95 
O90   C91 
C91   C92 
C91   H104 
C91   H105 
C92   C93 
C92   H108 
C92   H109 
C93   C94 
C93   H110 
C93   H111 
C94   H117 
C94   H118 
C94   H119 
O95   C96 
C96   C97 
C96   H102 
C96   H103 
C97   C98 
C97   H106 
C97   H107 
C98   C99 
C98   H112 
C98   H113 
C99   H114 
C99   H115 
C99   H116 
C120   C121 
C120   C125 
C120   H137 
C121   C122 
C122   C123 
C122   O126 
C123   C124 
C123   H136 
C124   C125 
C125   O131 
O126   C127 
C127   C128 
C127   H140 
C127   H141 
C128   C129 
C128   H144 
C128   H145 
C129   C130 
C129   H146 
C129   H147 
C130   H153 
C130   H154 
C130   H155 
O131   C132 
C132   C133 
C132   H138 
C132   H139 
C133   C134 
C133   H142 
C133   H143 
C134   C135 
C134   H148 
C134   H149 
C135   H150 
C135   H151 
C135   H152 
N156   C157 
N156   C158 
N156   C159 
N156   Cu227 
C157   C163 
C157   H164 
C157   H165 
C158   C160 
C158   H161 
C158   H162 
C159   C166 
C159   H167 
C159   H168 
C160   H171 
C160   H172 
C160   N174 
C163   H169 
C163   H170 
C163   N174 
C166   H173 
C166   N174 
C166   H175 
C176   C177 
C176   C181 
C176   H193 
C177   C178 
C178   C179 
C178   O182 
C179   C180 
C179   H192 
C180   C181 
C181   O187 
O182   C183 
C183   C184 
C183   H196 
C183   H197 
C184   C185 
C184   H200 
C184   H201 
C185   C186 
C185   H202 
C185   H203 
C186   H209 
C186   H210 
C186   H211 
O187   C188 
C188   C189 
C188   H194 
C188   H195 
C189   C190 
C189   H198 
C189   H199 
C190   C191 
C190   H204 
C190   H205 
C191   H206 
C191   H207 
C191   H208 
Cu212   Cu213 
Cu212   O216 
Cu212   O219 
Cu212   O222 
Cu212   O225 
Cu212   N294 
Cu213   O214 
Cu213   O217 
Cu213   O220 
Cu213   O223 
O214   C215 
C215   O216 
C215   C244 
O217   C218 
C218   O219 
C218   C300 
O220   C221 
C221   O222 
C221   C392 
O223   C224 
C224   O225 
C224   C333 
Cu226   Cu227 
Cu226   O230 
Cu226   O233 
Cu226   O236 
Cu226   O239 
Cu226   N386 
Cu227   O228 
Cu227   O231 
Cu227   O234 
Cu227   O237 
O228   C229 
C229   O230 
C229   C336 
O231   C232 
C232   O233 
C232   C389 
O234   C235 
C235   O236 
C235   C297 
O237   C238 
C238   O239 
C238   C241 
C240   C241 
C240   C245 
C240   H257 
C241   C242 
C242   C243 
C242   O246 
C243   C244 
C243   H256 
C244   C245 
C245   O251 
O246   C247 
C247   C248 
C247   H260 
C247   H261 
C248   C249 
C248   H264 
C248   H265 
C249   C250 
C249   H266 
C249   H267 
C250   H273 
C250   H274 
C250   H275 
O251   C252 
C252   C253 
C252   H258 
C252   H259 
C253   C254 
C253   H262 
C253   H263 
C254   C255 
C254   H268 
C254   H269 
C255   H270 
C255   H271 
C255   H272 
N276   C277 
N276   C278 
N276   C279 
C277   C283 
C277   H284 
C277   H285 
C278   C280 
C278   H281 
C278   H282 
C279   C286 
C279   H287 
C279   H288 
C280   H291 
C280   H292 
C280   N294 
C283   H289 
C283   H290 
C283   N294 
C286   H293 
C286   N294 
C286   H295 
C296   C297 
C296   C301 
C296   H313 
C297   C298 
C298   C299 
C298   O302 
C299   C300 
C299   H312 
C300   C301 
C301   O307 
O302   C303 
C303   C304 
C303   H316 
C303   H317 
C304   C305 
C304   H320 
C304   H321 
C305   C306 
C305   H322 
C305   H323 
C306   H329 
C306   H330 
C306   H331 
O307   C308 
C308   C309 
C308   H314 
C308   H315 
C309   C310 
C309   H318 
C309   H319 
C310   C311 
C310   H324 
C310   H325 
C311   H326 
C311   H327 
C311   H328 
C332   C333 
C332   C337 
C332   H349 
C333   C334 
C334   C335 
C334   O338 
C335   C336 
C335   H348 
C336   C337 
C337   O343 
O338   C339 
C339   C340 
C339   H352 
C339   H353 
C340   C341 
C340   H356 
C340   H357 
C341   C342 
C341   H358 
C341   H359 
C342   H365 
C342   H366 
C342   H367 
O343   C344 
C344   C345 
C344   H350 
C344   H351 
C345   C346 
C345   H354 
C345   H355 
C346   C347 
C346   H360 
C346   H361 
C347   H362 
C347   H363 
C347   H364 
N368   C369 
N368   C370 
N368   C371 
C369   C375 
C369   H376 
C369   H377 
C370   C372 
C370   H373 
C370   H374 
C371   C378 
C371   H379 
C371   H380 
C372   H383 
C372   H384 
C372   N386 
C375   H381 
C375   H382 
C375   N386 
C378   H385 
C378   N386 
C378   H387 
C388   C389 
C388   C393 
C388   H405 
C389   C390 
C390   C391 
C390   O394 
C391   C392 
C391   H404 
C392   C393 
C393   O399 
O394   C395 
C395   C396 
C395   H408 
C395   H409 
C396   C397 
C396   H412 
C396   H413 
C397   C398 
C397   H414 
C397   H415 
C398   H421 
C398   H422 
C398   H423 
O399   C400 
C400   C401 
C400   H406 
C400   H407 
C401   C402 
C401   H410 
C401   H411 
C402   C403 
C402   H416 
C402   H417 
C403   H418 
C403   H419 
C403   H420 
  
#END  
