data_
_symmetry_cell_setting           triclinic 
_symmetry_space_group_name_H-M   'P 1' 
_symmetry_Int_Tables_number      1 
loop_ 
_symmetry_equiv_pos_site_id 
_symmetry_equiv_pos_as_xyz 
1 x,y,z 
_cell_length_a             15.715595        
_cell_length_b             15.035155        
_cell_length_c             19.117376        
_cell_angle_alpha          90.288493        
_cell_angle_beta           89.492844        
_cell_angle_gamma          90.144479        
loop_  
_atom_site_label   
_atom_site_type_symbol  
_atom_site_fract_x  
_atom_site_fract_y  
_atom_site_fract_z 
 Cu0  Cu     0.003645     -0.005117      0.069448 
 Cu1  Cu     0.006563      0.001648     -0.066564 
 O2  O    -0.067775      0.108401     -0.054648 
 C3  C    -0.107006      0.121398      0.003135 
 O4  O    -0.088528      0.084852      0.060991 
 O5  O     0.106047      0.079770     -0.049780 
 C6  C     0.125140      0.111626      0.010003 
 O7  O     0.092006      0.088887      0.068251 
 O8  O    -0.095081     -0.076625     -0.065244 
 C9  C    -0.114569     -0.115978     -0.008504 
 O10  O    -0.081946     -0.099220      0.051011 
 O11  O     0.082247     -0.104947     -0.059027 
 C12  C     0.116084     -0.126604     -0.001233 
 O13  O     0.095259     -0.095112      0.058562 
 Cu14  Cu    -0.495473      0.493268      0.066304 
 Cu15  Cu    -0.496186      0.499453     -0.069797 
 O16  O     0.419870     -0.403739     -0.057245 
 C17  C     0.398936     -0.373865      0.003000 
 O18  O     0.431911     -0.397610      0.060628 
 O19  O    -0.403226     -0.412953     -0.056443 
 C20  C    -0.370034     -0.395174      0.002638 
 O21  O    -0.390929     -0.431808      0.060176 
 O22  O     0.407756      0.413583     -0.064847 
 C23  C     0.377096      0.390510     -0.005792 
 O24  O     0.401408      0.419319      0.053619 
 O25  O    -0.410888      0.402298     -0.063431 
 C26  C    -0.390197      0.367232     -0.005528 
 O27  O    -0.425673      0.383390      0.053410 
 C28  C    -0.180199      0.251857     -0.048529 
 C29  C    -0.181269      0.184247      0.001635 
 C30  C    -0.250770      0.174455      0.047768 
 C31  C    -0.319000      0.234334      0.044099 
 C32  C    -0.317444      0.302532     -0.005531 
 C33  C    -0.248200      0.312035     -0.051954 
 O34  O    -0.248934      0.105405      0.094192 
 C35  C    -0.323990      0.081779      0.132948 
 C36  C    -0.304117     -0.004065      0.171266 
 C37  C    -0.377802     -0.038984      0.216814 
 C38  C    -0.357255     -0.127866      0.251720 
 O39  O    -0.249513      0.381544     -0.098002 
 C40  C    -0.173645      0.405172     -0.135695 
 C41  C    -0.189955      0.494180     -0.170596 
 C42  C    -0.114243     -0.471335     -0.214108 
 C43  C    -0.129642     -0.378591     -0.244358 
 H44  H    -0.372986      0.228366      0.080121 
 H45  H    -0.126319      0.257823     -0.084646 
 H46  H    -0.119857      0.410364     -0.099250 
 H47  H    -0.159218      0.353147     -0.174816 
 H48  H    -0.340119      0.135571      0.170078 
 H49  H    -0.377601      0.072339      0.096824 
 H50  H    -0.246054      0.488426     -0.204442 
 H51  H    -0.206515     -0.456279     -0.129999 
 H52  H    -0.285895     -0.055493      0.132642 
 H53  H    -0.248063      0.006469      0.204467 
 H54  H    -0.393853      0.010791      0.257254 
 H55  H    -0.435003     -0.046960      0.184460 
 H56  H    -0.056955     -0.469449     -0.181335 
 H57  H    -0.100506      0.481506     -0.256991 
 H58  H    -0.075146     -0.356335     -0.276071 
 H59  H    -0.186072     -0.377530     -0.277919 
 H60  H    -0.138929     -0.329219     -0.202404 
 H61  H    -0.410363     -0.150689      0.284753 
 H62  H    -0.345270     -0.179978      0.212367 
 H63  H    -0.300790     -0.122751      0.285052 
 N64  N    -0.007150     -0.007077      0.319839 
 C65  C     0.081294     -0.014344      0.293323 
 C66  C    -0.056265     -0.083104      0.291430 
 C67  C    -0.044589      0.075799      0.292415 
 C68  C    -0.053083     -0.083690      0.209578 
 H69  H    -0.030285     -0.145495      0.312483 
 H70  H    -0.122621     -0.078329      0.310360 
 C71  C     0.083531     -0.013199      0.211624 
 H72  H     0.119336      0.040877      0.314812 
 H73  H     0.109597     -0.076348      0.312949 
 C74  C    -0.043061      0.075513      0.210694 
 H75  H    -0.110516      0.081953      0.312052 
 H76  H    -0.009044      0.133315      0.313215 
 H77  H     0.121102      0.043760      0.192537 
 H78  H     0.114578     -0.073710      0.191030 
 H79  H    -0.023838     -0.145588      0.189691 
 H80  H    -0.117824     -0.081103      0.187939 
 H81  H    -0.007738      0.133492      0.190423 
 N82  N    -0.003453     -0.006944      0.183174 
 H83  H    -0.108319      0.080565      0.190474 
 C84  C     0.307390      0.267684      0.056628 
 C85  C     0.309218      0.320488     -0.003523 
 C86  C     0.250799      0.306811     -0.057857 
 C87  C     0.190899      0.238165     -0.050501 
 C88  C     0.189827      0.184786      0.009211 
 C89  C     0.247674      0.198865      0.063745 
 O90  O     0.252775      0.359969     -0.116251 
 C91  C     0.189838      0.345357     -0.169470 
 C92  C     0.209982      0.401371     -0.233599 
 C93  C     0.147363      0.386811     -0.294024 
 C94  C     0.176580      0.429747     -0.362864 
 O95  O     0.244991      0.144946      0.121575 
 C96  C     0.309369      0.154944      0.174127 
 C97  C     0.287082      0.095886      0.236069 
 C98  C     0.350981      0.101354      0.296367 
 C99  C     0.320630      0.052061      0.362164 
 H100  H     0.143757      0.225837     -0.091077 
 H101  H     0.354295      0.279384      0.097441 
 H102  H     0.371604      0.136630      0.151304 
 H103  H     0.312247      0.224807      0.191566 
 H104  H     0.189778      0.274605     -0.184700 
 H105  H     0.126623      0.362291     -0.147855 
 H106  H     0.224133      0.115559      0.256280 
 H107  H     0.281128      0.026258      0.218480 
 H108  H     0.211662      0.472389     -0.219202 
 H109  H     0.274251      0.384356     -0.252312 
 H110  H     0.138454      0.314981     -0.302927 
 H111  H     0.084415      0.412962     -0.278875 
 H112  H     0.412614      0.074149      0.278814 
 H113  H     0.362683      0.171582      0.309943 
 H114  H     0.367737      0.056787      0.404164 
 H115  H     0.260809      0.080069      0.382640 
 H116  H     0.309086     -0.018790      0.351699 
 H117  H     0.131095      0.416499     -0.405021 
 H118  H     0.183572     -0.497895     -0.357989 
 H119  H     0.238561      0.403687     -0.380150 
 C120  C     0.268621     -0.315111     -0.050817 
 C121  C     0.326261     -0.309069      0.004208 
 C122  C     0.315113     -0.245028      0.057050 
 C123  C     0.246104     -0.186132      0.053490 
 C124  C     0.188718     -0.191665     -0.001956 
 C125  C     0.200070     -0.255762     -0.054966 
 O126  O     0.372991     -0.241782      0.109899 
 C127  C     0.354159     -0.188164      0.170029 
 C128  C     0.408721     -0.222656      0.228765 
 C129  C     0.391152     -0.176250      0.298864 
 C130  C     0.426663     -0.228365      0.360377 
 O131  O     0.143946     -0.259102     -0.109252 
 C132  C     0.159590     -0.321141     -0.165075 
 C133  C     0.111078     -0.289739     -0.228269 
 C134  C     0.124191     -0.348906     -0.292766 
 C135  C     0.091184     -0.305919     -0.359489 
 H136  H     0.237790     -0.134301      0.093198 
 H137  H     0.277163     -0.367870     -0.089765 
 H138  H     0.227817     -0.323332     -0.178584 
 H139  H     0.138942     -0.387951     -0.148461 
 H140  H     0.368298     -0.117935      0.158312 
 H141  H     0.286382     -0.194256      0.184539 
 H142  H     0.042727     -0.284321     -0.215719 
 H143  H     0.133562     -0.222467     -0.241071 
 H144  H     0.396586     -0.294279      0.234616 
 H145  H     0.476589     -0.216242      0.214725 
 H146  H     0.418900     -0.108965      0.297883 
 H147  H     0.322116     -0.167903      0.306541 
 H148  H     0.192466     -0.363285     -0.299457 
 H149  H     0.092067     -0.413157     -0.284326 
 H150  H     0.102685     -0.348847     -0.405200 
 H151  H     0.022876     -0.291634     -0.355723 
 H152  H     0.123160     -0.242317     -0.369477 
 H153  H     0.414943     -0.193994      0.410316 
 H154  H     0.396766     -0.294102      0.364085 
 H155  H     0.495273     -0.239547      0.354419 
 N156  N     0.490830      0.483107      0.316329 
 C157  C    -0.487591      0.393265      0.289510 
 C158  C     0.406910     -0.492903      0.287959 
 C159  C    -0.445587     -0.453214      0.288947 
 C160  C     0.408053     -0.497010      0.206166 
 H161  H     0.358020      0.462170      0.309867 
 H162  H     0.390915     -0.425372      0.306100 
 C163  C    -0.483064      0.392687      0.207613 
 H164  H    -0.426598      0.371978      0.311834 
 H165  H     0.463907      0.345824      0.308496 
 C166  C    -0.445157     -0.452944      0.207347 
 H167  H    -0.459564     -0.386008      0.309244 
 H168  H    -0.382573     -0.471996      0.308822 
 H169  H    -0.418501      0.375403      0.189186 
 H170  H     0.473696      0.342076      0.185639 
 H171  H     0.362760      0.452432      0.187085 
 H172  H     0.388001     -0.433092      0.183883 
 H173  H    -0.381104     -0.468638      0.187045 
 N174  N     0.494099      0.480941      0.179571 
 H175  H    -0.461842     -0.386442      0.187608 
 C176  C    -0.290002     -0.279466     -0.061495 
 C177  C    -0.302595     -0.323892      0.002003 
 C178  C    -0.253548     -0.301102      0.060599 
 C179  C    -0.191701     -0.234340      0.053824 
 C180  C    -0.179999     -0.189073     -0.009260 
 C181  C    -0.229102     -0.211513     -0.067864 
 O182  O    -0.266478     -0.342895      0.123338 
 C183  C    -0.211635     -0.320848      0.180726 
 C184  C    -0.245316     -0.368103      0.245011 
 C185  C    -0.190180     -0.356965      0.310267 
 C186  C    -0.226470     -0.408479      0.372682 
 O187  O    -0.217144     -0.167226     -0.129709 
 C188  C    -0.273961     -0.185628     -0.186485 
 C189  C    -0.248307     -0.127314     -0.247632 
 C190  C    -0.303977     -0.139773     -0.312538 
 C191  C    -0.283398     -0.072367     -0.370134 
 H192  H    -0.152015     -0.216873      0.098399 
 H193  H    -0.328763     -0.297496     -0.106464 
 H194  H    -0.270046     -0.256296     -0.201571 
 H195  H    -0.339765     -0.171016     -0.169658 
 H196  H    -0.146279     -0.342330      0.167933 
 H197  H    -0.211426     -0.248538      0.190258 
 H198  H    -0.250687     -0.057499     -0.230566 
 H199  H    -0.181630     -0.141052     -0.262035 
 H200  H    -0.309615     -0.342964      0.256872 
 H201  H    -0.252074     -0.439246      0.232831 
 H202  H    -0.124883     -0.379583      0.298954 
 H203  H    -0.185602     -0.285889      0.324067 
 H204  H    -0.295150     -0.207642     -0.333286 
 H205  H    -0.371656     -0.134276     -0.297786 
 H206  H    -0.318991     -0.086897     -0.417862 
 H207  H    -0.299481     -0.004235     -0.354126 
 H208  H    -0.215529     -0.073358     -0.384182 
 H209  H    -0.189151     -0.397275      0.420020 
 H210  H    -0.291958     -0.387694      0.384325 
 H211  H    -0.227815     -0.480434      0.362910 
 Cu212  Cu    -0.001465      0.003005     -0.429957 
 Cu213  Cu    -0.004466      0.001363      0.433831 
 O214  O    -0.098728      0.088502      0.446674 
 C215  C    -0.128524      0.111627     -0.493687 
 O216  O    -0.106439      0.077791     -0.435728 
 O217  O     0.079452      0.099992      0.437419 
 C218  C     0.103601      0.131886      0.495812 
 O219  O     0.071642      0.111786     -0.444658 
 O220  O    -0.088209     -0.096097      0.442542 
 C221  C    -0.106908     -0.130054     -0.498403 
 O222  O    -0.071236     -0.110448     -0.440614 
 O223  O     0.089487     -0.086258      0.446197 
 C224  C     0.123965     -0.103694     -0.495247 
 O225  O     0.104606     -0.067374     -0.437021 
 Cu226  Cu     0.497261     -0.494839     -0.433866 
 Cu227  Cu     0.495461     -0.496742      0.429845 
 O228  O     0.386354     -0.431045      0.438389 
 C229  C     0.367012     -0.393070      0.495960 
 O230  O     0.400312     -0.410541     -0.445020 
 O231  O    -0.438068     -0.380451      0.442855 
 C232  C    -0.403507     -0.360042     -0.499037 
 O233  O    -0.422704     -0.394177     -0.440203 
 O234  O     0.427058      0.391183      0.442848 
 C235  C     0.395381      0.369721     -0.497799 
 O236  O     0.418036      0.402212     -0.439175 
 O237  O    -0.396896      0.433067      0.434370 
 C238  C    -0.373609      0.400841      0.492599 
 O239  O    -0.404474      0.423098     -0.447935 
 C240  C    -0.296250      0.285840     -0.442125 
 C241  C    -0.307382      0.328396      0.493676 
 C242  C    -0.259694      0.301042      0.434851 
 C243  C    -0.203689      0.228952      0.441571 
 C244  C    -0.192404      0.186445     -0.494134 
 C245  C    -0.238848      0.215093     -0.434901 
 O246  O    -0.267222      0.345616      0.372746 
 C247  C    -0.222197      0.312593      0.312189 
 C248  C    -0.227945      0.380349      0.253854 
 C249  C    -0.199091      0.344160      0.182357 
 C250  C    -0.196335      0.415375      0.125198 
 O251  O    -0.228373      0.175161     -0.371083 
 C252  C    -0.285552      0.199965     -0.315040 
 C253  C    -0.266382      0.146110     -0.250163 
 C254  C    -0.334429      0.155218     -0.192540 
 C255  C    -0.320988      0.092012     -0.130902 
 H256  H    -0.167172      0.206055      0.396165 
 H257  H    -0.334048      0.307722     -0.397111 
 H258  H    -0.278115      0.271344     -0.303090 
 H259  H    -0.351456      0.187575     -0.331967 
 H260  H    -0.154596      0.302045      0.324432 
 H261  H    -0.250516      0.248448      0.296518 
 H262  H    -0.260360      0.075727     -0.264811 
 H263  H    -0.204453      0.166895     -0.229145 
 H264  H    -0.293411      0.405340      0.249965 
 H265  H    -0.187758      0.437758      0.267662 
 H266  H    -0.135940      0.313533      0.187196 
 H267  H    -0.242314      0.290245      0.166391 
 H268  H    -0.335653      0.224422     -0.173331 
 H269  H    -0.397336      0.142194     -0.215315 
 H270  H    -0.367816      0.104280     -0.088927 
 H271  H    -0.327448      0.022093     -0.146947 
 H272  H    -0.257363      0.100143     -0.108408 
 H273  H    -0.174310      0.387178      0.075110 
 H274  H    -0.259562      0.444311      0.116523 
 H275  H    -0.152779      0.469943      0.138808 
 N276  N     0.006860      0.006773     -0.179858 
 C277  C     0.010782     -0.084730     -0.208080 
 C278  C    -0.071475      0.049176     -0.205501 
 C279  C     0.080417      0.057196     -0.208100 
 C280  C    -0.073083      0.048776     -0.287183 
 H281  H    -0.127283      0.014028     -0.183724 
 H282  H    -0.074141      0.117973     -0.185389 
 C283  C     0.010361     -0.084290     -0.289742 
 H284  H     0.068920     -0.116433     -0.188617 
 H285  H    -0.043438     -0.123583     -0.187522 
 C286  C     0.078660      0.058519     -0.289931 
 H287  H     0.078759      0.125480     -0.186797 
 H288  H     0.139632      0.026732     -0.189288 
 H289  H     0.068692     -0.115170     -0.310858 
 H290  H    -0.043503     -0.123742     -0.309704 
 H291  H    -0.128831      0.011833     -0.306461 
 H292  H    -0.078153      0.117243     -0.307118 
 H293  H     0.137567      0.030181     -0.312361 
 N294  N     0.004780      0.007597     -0.316375 
 H295  H     0.074634      0.127481     -0.308992 
 C296  C     0.227834      0.197783     -0.443447 
 C297  C     0.178677      0.194415      0.495833 
 C298  C     0.200894      0.246267      0.437355 
 C299  C     0.273598      0.300714      0.440583 
 C300  C     0.322294      0.304700     -0.498497 
 C301  C     0.300451      0.252396     -0.440186 
 O302  O     0.150598      0.242706      0.379017 
 C303  C     0.170979      0.299364      0.320997 
 C304  C     0.106867      0.283771      0.263036 
 C305  C     0.122419      0.343693      0.199352 
 C306  C     0.062572      0.324688      0.138166 
 O307  O     0.350738      0.256478     -0.381857 
 C308  C     0.329438      0.201922     -0.322811 
 C309  C     0.392086      0.220698     -0.264307 
 C310  C     0.376647      0.162434     -0.199660 
 C311  C     0.429454      0.189952     -0.136061 
 H312  H     0.291256      0.342617      0.396259 
 H313  H     0.210119      0.156015     -0.399059 
 H314  H     0.264208      0.217248     -0.305101 
 H315  H     0.331698      0.131378     -0.338526 
 H316  H     0.169599      0.369316      0.338456 
 H317  H     0.235690      0.284070      0.301976 
 H318  H     0.457679      0.210645     -0.283534 
 H319  H     0.387493      0.291147     -0.248935 
 H320  H     0.109614      0.213719      0.246201 
 H321  H     0.041934      0.294887      0.283436 
 H322  H     0.115280      0.413566      0.215733 
 H323  H     0.188708      0.336209      0.181176 
 H324  H     0.308718      0.164473     -0.185144 
 H325  H     0.390883      0.092817     -0.213375 
 H326  H     0.415335      0.147348     -0.090838 
 H327  H     0.497982      0.185711     -0.146773 
 H328  H     0.415850      0.258814     -0.120318 
 H329  H     0.077552      0.367539      0.093266 
 H330  H     0.067816      0.255364      0.120160 
 H331  H    -0.004081      0.336572      0.152898 
 C332  C     0.187121     -0.234568      0.446857 
 C333  C     0.189967     -0.175780     -0.496313 
 C334  C     0.250084     -0.187169     -0.443066 
 C335  C     0.306490     -0.259223     -0.447933 
 C336  C     0.303279     -0.318563      0.495424 
 C337  C     0.243941     -0.306161      0.441523 
 O338  O     0.252256     -0.128649     -0.387617 
 C339  C     0.304553     -0.150235     -0.328751 
 C340  C     0.282001     -0.089835     -0.267307 
 C341  C     0.331129     -0.112271     -0.200464 
 C342  C     0.298544     -0.062772     -0.135229 
 O343  O     0.241426     -0.362798      0.384821 
 C344  C     0.185945     -0.340577      0.327872 
 C345  C     0.207273     -0.396819      0.263851 
 C346  C     0.150982     -0.376977      0.200447 
 C347  C     0.181816     -0.422522      0.132858 
 H348  H     0.354693     -0.268530     -0.407840 
 H349  H     0.138163     -0.225323      0.407351 
 H350  H     0.119441     -0.351470      0.344570 
 H351  H     0.194154     -0.269843      0.314505 
 H352  H     0.293553     -0.220117     -0.313966 
 H353  H     0.372014     -0.142209     -0.343765 
 H354  H     0.273755     -0.383522      0.249032 
 H355  H     0.203165     -0.467983      0.276892 
 H356  H     0.293691     -0.019940     -0.281524 
 H357  H     0.213381     -0.095583     -0.256411 
 H358  H     0.327048     -0.184316     -0.190803 
 H359  H     0.399147     -0.097353     -0.208560 
 H360  H     0.085063     -0.397594      0.212009 
 H361  H     0.148983     -0.304620      0.191858 
 H362  H     0.140685     -0.405884      0.088601 
 H363  H     0.246754     -0.401426      0.118940 
 H364  H     0.182608     -0.495235      0.137597 
 H365  H     0.335128     -0.081096     -0.088737 
 H366  H     0.302953      0.009675     -0.140948 
 H367  H     0.231555     -0.078983     -0.124275 
 N368  N    -0.495283     -0.494864     -0.183387 
 C369  C    -0.455505      0.424159     -0.213271 
 C370  C     0.416638     -0.489160     -0.209693 
 C371  C    -0.447535     -0.416660     -0.209491 
 C372  C     0.415905     -0.487181     -0.291402 
 H373  H     0.380017      0.453516     -0.190038 
 H374  H     0.386056     -0.429024     -0.187973 
 C375  C    -0.455328      0.427219     -0.294932 
 H376  H    -0.389919      0.418612     -0.193823 
 H377  H    -0.490315      0.365246     -0.194108 
 C378  C    -0.448779     -0.413635     -0.291215 
 H379  H    -0.475603     -0.355711     -0.186788 
 H380  H    -0.381520     -0.420201     -0.190661 
 H381  H    -0.389457      0.425021     -0.315200 
 H382  H    -0.488648      0.368935     -0.316887 
 H383  H     0.379519      0.456067     -0.312400 
 H384  H     0.384359     -0.426391     -0.310018 
 H385  H    -0.383307     -0.414484     -0.312493 
 N386  N    -0.496386     -0.490489     -0.319942 
 H387  H    -0.478501     -0.351656     -0.309514 
 C388  C    -0.258138     -0.323626     -0.459972 
 C389  C    -0.329291     -0.296755     -0.497989 
 C390  C    -0.328215     -0.215774      0.465796 
 C391  C    -0.252918     -0.165346      0.463887 
 C392  C    -0.181608     -0.192561     -0.498497 
 C393  C    -0.182564     -0.273613     -0.462383 
 O394  O    -0.399932     -0.188013      0.432355 
 C395  C    -0.423386     -0.095627      0.438358 
 C396  C    -0.473442     -0.080124     -0.494015 
 C397  C    -0.478567      0.018659     -0.473373 
 C398  C     0.471782      0.035153     -0.405266 
 O399  O    -0.110639     -0.302410     -0.429640 
 C400  C    -0.087494     -0.394559     -0.439046 
 C401  C    -0.034396     -0.406293      0.494385 
 C402  C    -0.022690      0.495388      0.474033 
 C403  C     0.032252      0.481334      0.408330 
 H404  H    -0.250061     -0.103647      0.434006 
 H405  H    -0.260898     -0.385237     -0.429971 
 H406  H    -0.050983     -0.415250     -0.393080 
 H407  H    -0.143993     -0.437788     -0.440685 
 H408  H    -0.367251     -0.051928      0.435907 
 H409  H    -0.462640     -0.078960      0.392880 
 H410  H    -0.063866     -0.370597      0.450761 
 H411  H     0.028377     -0.374911     -0.498882 
 H412  H     0.461716     -0.107082     -0.499576 
 H413  H    -0.444858     -0.117786     -0.450989 
 H414  H    -0.413695      0.045658     -0.467957 
 H415  H     0.491864      0.056350      0.484036 
 H416  H     0.005869      0.459480     -0.481968 
 H417  H    -0.085623      0.464783      0.465796 
 H418  H     0.037203      0.410170      0.395610 
 H419  H     0.004952     -0.485116      0.362804 
 H420  H     0.097117     -0.493019      0.415874 
 H421  H     0.470962      0.106439     -0.392363 
 H422  H     0.405456      0.012561     -0.409764 
 H423  H    -0.499360      0.000101     -0.361110 
loop_  
_geom_bond_atom_site_label_1  
_geom_bond_atom_site_label_2  
Cu0   Cu1 
Cu0   O4 
Cu0   O7 
Cu0   O10 
Cu0   O13 
Cu0   N82 
Cu1   O2 
Cu1   O5 
Cu1   O8 
Cu1   O11 
Cu1   N276 
O2   C3 
C3   O4 
C3   C29 
O5   C6 
C6   O7 
C6   C88 
O8   C9 
C9   O10 
C9   C180 
O11   C12 
C12   O13 
C12   C124 
Cu14   Cu15 
Cu14   O18 
Cu14   O21 
Cu14   O24 
Cu14   O27 
Cu14   N174 
Cu15   O16 
Cu15   O19 
Cu15   O22 
Cu15   O25 
Cu15   N368 
O16   C17 
C17   O18 
C17   C121 
O19   C20 
C20   O21 
C20   C177 
O22   C23 
C23   O24 
C23   C85 
O25   C26 
C26   O27 
C26   C32 
C28   C29 
C28   C33 
C28   H45 
C29   C30 
C30   C31 
C30   O34 
C31   C32 
C31   H44 
C32   C33 
C33   O39 
O34   C35 
C35   C36 
C35   H48 
C35   H49 
C36   C37 
C36   H52 
C36   H53 
C37   C38 
C37   H54 
C37   H55 
C38   H61 
C38   H62 
C38   H63 
O39   C40 
C40   C41 
C40   H46 
C40   H47 
C41   C42 
C41   H50 
C41   H51 
C42   C43 
C42   H56 
C42   H57 
C43   H58 
C43   H59 
C43   H60 
N64   C65 
N64   C66 
N64   C67 
N64   Cu213 
C65   C71 
C65   H72 
C65   H73 
C66   C68 
C66   H69 
C66   H70 
C67   C74 
C67   H75 
C67   H76 
C68   H79 
C68   H80 
C68   N82 
C71   H77 
C71   H78 
C71   N82 
C74   H81 
C74   N82 
C74   H83 
C84   C85 
C84   C89 
C84   H101 
C85   C86 
C86   C87 
C86   O90 
C87   C88 
C87   H100 
C88   C89 
C89   O95 
O90   C91 
C91   C92 
C91   H104 
C91   H105 
C92   C93 
C92   H108 
C92   H109 
C93   C94 
C93   H110 
C93   H111 
C94   H117 
C94   H118 
C94   H119 
O95   C96 
C96   C97 
C96   H102 
C96   H103 
C97   C98 
C97   H106 
C97   H107 
C98   C99 
C98   H112 
C98   H113 
C99   H114 
C99   H115 
C99   H116 
C120   C121 
C120   C125 
C120   H137 
C121   C122 
C122   C123 
C122   O126 
C123   C124 
C123   H136 
C124   C125 
C125   O131 
O126   C127 
C127   C128 
C127   H140 
C127   H141 
C128   C129 
C128   H144 
C128   H145 
C129   C130 
C129   H146 
C129   H147 
C130   H153 
C130   H154 
C130   H155 
O131   C132 
C132   C133 
C132   H138 
C132   H139 
C133   C134 
C133   H142 
C133   H143 
C134   C135 
C134   H148 
C134   H149 
C135   H150 
C135   H151 
C135   H152 
N156   C157 
N156   C158 
N156   C159 
N156   Cu227 
C157   C163 
C157   H164 
C157   H165 
C158   C160 
C158   H161 
C158   H162 
C159   C166 
C159   H167 
C159   H168 
C160   H171 
C160   H172 
C160   N174 
C163   H169 
C163   H170 
C163   N174 
C166   H173 
C166   N174 
C166   H175 
C176   C177 
C176   C181 
C176   H193 
C177   C178 
C178   C179 
C178   O182 
C179   C180 
C179   H192 
C180   C181 
C181   O187 
O182   C183 
C183   C184 
C183   H196 
C183   H197 
C184   C185 
C184   H200 
C184   H201 
C185   C186 
C185   H202 
C185   H203 
C186   H209 
C186   H210 
C186   H211 
O187   C188 
C188   C189 
C188   H194 
C188   H195 
C189   C190 
C189   H198 
C189   H199 
C190   C191 
C190   H204 
C190   H205 
C191   H206 
C191   H207 
C191   H208 
Cu212   Cu213 
Cu212   O216 
Cu212   O219 
Cu212   O222 
Cu212   O225 
Cu212   N294 
Cu213   O214 
Cu213   O217 
Cu213   O220 
Cu213   O223 
O214   C215 
C215   O216 
C215   C244 
O217   C218 
C218   O219 
C218   C297 
O220   C221 
C221   O222 
C221   C392 
O223   C224 
C224   O225 
C224   C333 
Cu226   Cu227 
Cu226   O230 
Cu226   O233 
Cu226   O236 
Cu226   O239 
Cu226   N386 
Cu227   O228 
Cu227   O231 
Cu227   O234 
Cu227   O237 
O228   C229 
C229   O230 
C229   C336 
O231   C232 
C232   O233 
C232   C389 
O234   C235 
C235   O236 
C235   C300 
O237   C238 
C238   O239 
C238   C241 
C240   C241 
C240   C245 
C240   H257 
C241   C242 
C242   C243 
C242   O246 
C243   C244 
C243   H256 
C244   C245 
C245   O251 
O246   C247 
C247   C248 
C247   H260 
C247   H261 
C248   C249 
C248   H264 
C248   H265 
C249   C250 
C249   H266 
C249   H267 
C250   H273 
C250   H274 
C250   H275 
O251   C252 
C252   C253 
C252   H258 
C252   H259 
C253   C254 
C253   H262 
C253   H263 
C254   C255 
C254   H268 
C254   H269 
C255   H270 
C255   H271 
C255   H272 
N276   C277 
N276   C278 
N276   C279 
C277   C283 
C277   H284 
C277   H285 
C278   C280 
C278   H281 
C278   H282 
C279   C286 
C279   H287 
C279   H288 
C280   H291 
C280   H292 
C280   N294 
C283   H289 
C283   H290 
C283   N294 
C286   H293 
C286   N294 
C286   H295 
C296   C297 
C296   C301 
C296   H313 
C297   C298 
C298   C299 
C298   O302 
C299   C300 
C299   H312 
C300   C301 
C301   O307 
O302   C303 
C303   C304 
C303   H316 
C303   H317 
C304   C305 
C304   H320 
C304   H321 
C305   C306 
C305   H322 
C305   H323 
C306   H329 
C306   H330 
C306   H331 
O307   C308 
C308   C309 
C308   H314 
C308   H315 
C309   C310 
C309   H318 
C309   H319 
C310   C311 
C310   H324 
C310   H325 
C311   H326 
C311   H327 
C311   H328 
C332   C333 
C332   C337 
C332   H349 
C333   C334 
C334   C335 
C334   O338 
C335   C336 
C335   H348 
C336   C337 
C337   O343 
O338   C339 
C339   C340 
C339   H352 
C339   H353 
C340   C341 
C340   H356 
C340   H357 
C341   C342 
C341   H358 
C341   H359 
C342   H365 
C342   H366 
C342   H367 
O343   C344 
C344   C345 
C344   H350 
C344   H351 
C345   C346 
C345   H354 
C345   H355 
C346   C347 
C346   H360 
C346   H361 
C347   H362 
C347   H363 
C347   H364 
N368   C369 
N368   C370 
N368   C371 
C369   C375 
C369   H376 
C369   H377 
C370   C372 
C370   H373 
C370   H374 
C371   C378 
C371   H379 
C371   H380 
C372   H383 
C372   H384 
C372   N386 
C375   H381 
C375   H382 
C375   N386 
C378   H385 
C378   N386 
C378   H387 
C388   C389 
C388   C393 
C388   H405 
C389   C390 
C390   C391 
C390   O394 
C391   C392 
C391   H404 
C392   C393 
C393   O399 
O394   C395 
C395   C396 
C395   H408 
C395   H409 
C396   C397 
C396   H412 
C396   H413 
C397   C398 
C397   H414 
C397   H415 
C398   H421 
C398   H422 
C398   H423 
O399   C400 
C400   C401 
C400   H406 
C400   H407 
C401   C402 
C401   H410 
C401   H411 
C402   C403 
C402   H416 
C402   H417 
C403   H418 
C403   H419 
C403   H420 
  
#END  
