data_
_symmetry_cell_setting           triclinic 
_symmetry_space_group_name_H-M   'P 1' 
_symmetry_Int_Tables_number      1 
loop_ 
_symmetry_equiv_pos_site_id 
_symmetry_equiv_pos_as_xyz 
1 x,y,z 
_cell_length_a             15.826724        
_cell_length_b             15.062526        
_cell_length_c             19.072758        
_cell_angle_alpha          90.808739        
_cell_angle_beta           90.926416        
_cell_angle_gamma          90.030423        
loop_  
_atom_site_label   
_atom_site_type_symbol  
_atom_site_fract_x  
_atom_site_fract_y  
_atom_site_fract_z 
 Cu0  Cu    -0.007548      0.000181      0.072597 
 Cu1  Cu    -0.012018     -0.000821     -0.063587 
 O2  O    -0.113832      0.075353     -0.054878 
 C3  C    -0.128729      0.114830      0.003158 
 O4  O    -0.090989      0.099064      0.061188 
 O5  O     0.062981      0.106030     -0.047520 
 C6  C     0.101231      0.123451      0.010577 
 O7  O     0.086474      0.085844      0.068433 
 O8  O    -0.085505     -0.108418     -0.056015 
 C9  C    -0.119748     -0.124324      0.002580 
 O10  O    -0.101171     -0.085897      0.060614 
 O11  O     0.090103     -0.076375     -0.056484 
 C12  C     0.111988     -0.111815      0.001200 
 O13  O     0.075672     -0.098329      0.059623 
 Cu14  Cu     0.492364      0.499703      0.069095 
 Cu15  Cu     0.488161     -0.499943     -0.067105 
 O16  O     0.415288     -0.391456     -0.051044 
 C17  C     0.383165     -0.371875      0.008225 
 O18  O     0.400515     -0.411038      0.065421 
 O19  O    -0.408375     -0.424950     -0.055391 
 C20  C    -0.386577     -0.388741      0.002909 
 O21  O    -0.421964     -0.402760      0.061348 
 O22  O     0.386129      0.423792     -0.062600 
 C23  C     0.368268      0.387575     -0.004811 
 O24  O     0.406635      0.402902      0.053549 
 O25  O    -0.438463      0.391958     -0.059168 
 C26  C    -0.399770      0.374836     -0.001819 
 O27  O    -0.415118      0.411307      0.057306 
 C28  C    -0.259141      0.178281     -0.051459 
 C29  C    -0.197280      0.184128      0.001796 
 C30  C    -0.200082      0.252867      0.052213 
 C31  C    -0.266167      0.314991      0.049761 
 C32  C    -0.329177      0.307914     -0.002617 
 C33  C    -0.326856      0.238354     -0.052474 
 O34  O    -0.138459      0.254755      0.103267 
 C35  C    -0.109966      0.338219      0.131533 
 C36  C    -0.029737      0.318454      0.173610 
 C37  C     0.014121      0.400990      0.205065 
 C38  C     0.096305      0.379428      0.245039 
 O39  O    -0.389408      0.229697     -0.102471 
 C40  C    -0.433450      0.146145     -0.105723 
 C41  C     0.499202      0.143684     -0.049447 
 C42  C     0.460757      0.050824     -0.040341 
 C43  C     0.388164      0.048824      0.011872 
 H44  H    -0.268634      0.367965      0.089316 
 H45  H    -0.256116      0.126314     -0.091808 
 H46  H    -0.462650      0.139721     -0.158362 
 H47  H    -0.388963      0.090472     -0.099826 
 H48  H    -0.097657      0.384313      0.088474 
 H49  H    -0.158970      0.367375      0.165078 
 H50  H    -0.473904      0.166650      0.001263 
 H51  H     0.448819      0.191390     -0.062741 
 H52  H    -0.045145      0.273099      0.216339 
 H53  H     0.014949      0.282540      0.139672 
 H54  H     0.027769      0.447543      0.162679 
 H55  H    -0.029701      0.435249      0.240561 
 H56  H     0.437853      0.025343     -0.091497 
 H57  H    -0.489323      0.004754     -0.023046 
 H58  H     0.363054     -0.018787      0.017245 
 H59  H     0.408886      0.072229      0.064210 
 H60  H     0.335561      0.091252     -0.005425 
 H61  H     0.125878      0.439866      0.267146 
 H62  H     0.084832      0.334115      0.288563 
 H63  H     0.142303      0.347491      0.210256 
 N64  N    -0.005812     -0.005854      0.322483 
 C65  C    -0.072987     -0.064873      0.293686 
 C66  C    -0.021730      0.084900      0.296658 
 C67  C     0.076276     -0.036087      0.294852 
 C68  C    -0.019522      0.086319      0.214886 
 H69  H    -0.083944      0.107346      0.315045 
 H70  H     0.025600      0.130884      0.319847 
 C71  C    -0.075679     -0.061583      0.211953 
 H72  H    -0.060893     -0.133178      0.311305 
 H73  H    -0.134396     -0.044596      0.315298 
 C74  C     0.073928     -0.038833      0.212940 
 H75  H     0.126017      0.009379      0.314553 
 H76  H     0.091720     -0.101959      0.315782 
 H77  H    -0.069214     -0.128810      0.189092 
 H78  H    -0.136903     -0.035538      0.193323 
 H79  H    -0.078760      0.114250      0.193499 
 H80  H     0.032401      0.128934      0.197153 
 H81  H     0.081832     -0.107540      0.193561 
 N82  N    -0.007490     -0.004225      0.185831 
 H83  H     0.126175      0.000054      0.191338 
 C84  C     0.287842      0.275085      0.059407 
 C85  C     0.297392      0.320714     -0.003379 
 C86  C     0.242418      0.303155     -0.060680 
 C87  C     0.178194      0.239627     -0.053510 
 C88  C     0.169438      0.193239      0.009080 
 C89  C     0.224355      0.210892      0.066377 
 O90  O     0.252595      0.347856     -0.122174 
 C91  C     0.193243      0.333078     -0.179006 
 C92  C     0.224309      0.382731     -0.242371 
 C93  C     0.169064      0.369412     -0.308510 
 C94  C     0.207111      0.411433     -0.373555 
 O95  O     0.216271      0.164901      0.127550 
 C96  C     0.276413      0.181306      0.183499 
 C97  C     0.257166      0.120697      0.244087 
 C98  C     0.316723      0.134680      0.307669 
 C99  C     0.298749      0.070759      0.367347 
 H100  H     0.134504      0.225676     -0.097166 
 H101  H     0.331220      0.289115      0.103214 
 H102  H     0.340739      0.168418      0.164514 
 H103  H     0.272192      0.251326      0.200623 
 H104  H     0.188770      0.261632     -0.191590 
 H105  H     0.130399      0.356963     -0.163288 
 H106  H     0.191586      0.132034      0.260479 
 H107  H     0.261030      0.051040      0.226008 
 H108  H     0.227750      0.454181     -0.229580 
 H109  H     0.288999      0.360613     -0.253713 
 H110  H     0.159852      0.297838     -0.318561 
 H111  H     0.106015      0.397735     -0.299353 
 H112  H     0.382760      0.126689      0.291363 
 H113  H     0.310883      0.203524      0.327272 
 H114  H     0.340195      0.084215      0.412911 
 H115  H     0.233288      0.077038      0.384880 
 H116  H     0.308494      0.001404      0.351176 
 H117  H     0.165797      0.402373     -0.419856 
 H118  H     0.217550      0.483009     -0.366306 
 H119  H     0.268389      0.381284     -0.385686 
 C120  C     0.298466     -0.257119     -0.054417 
 C121  C     0.319088     -0.297626      0.009496 
 C122  C     0.277657     -0.270637      0.071166 
 C123  C     0.208604     -0.212445      0.065839 
 C124  C     0.186578     -0.173957      0.001929 
 C125  C     0.234410     -0.192774     -0.057777 
 O126  O     0.302869     -0.299996      0.136152 
 C127  C     0.277791     -0.245826      0.195060 
 C128  C     0.331689     -0.262583      0.260142 
 C129  C     0.315715     -0.192725      0.318071 
 C130  C     0.377518     -0.196157      0.380724 
 O131  O     0.215885     -0.150030     -0.118810 
 C132  C     0.285578     -0.117048     -0.157783 
 C133  C     0.260477     -0.026904     -0.186934 
 C134  C     0.328121      0.018571     -0.231042 
 C135  C     0.305051      0.113802     -0.251284 
 H136  H     0.171436     -0.196518      0.112066 
 H137  H     0.330647     -0.275856     -0.102566 
 H138  H     0.342283     -0.110924     -0.123700 
 H139  H     0.298612     -0.165573     -0.199889 
 H140  H     0.283350     -0.175332      0.180943 
 H141  H     0.211085     -0.259825      0.206100 
 H142  H     0.203013     -0.035302     -0.219473 
 H143  H     0.243530      0.017280     -0.142749 
 H144  H     0.318602     -0.329193      0.280236 
 H145  H     0.398741     -0.262336      0.246166 
 H146  H     0.318526     -0.126165      0.295207 
 H147  H     0.250733     -0.200216      0.336769 
 H148  H     0.388629      0.019797     -0.201859 
 H149  H     0.338680     -0.020988     -0.279059 
 H150  H     0.354663      0.143786     -0.282973 
 H151  H     0.245832      0.116128     -0.282098 
 H152  H     0.297410      0.156100     -0.204381 
 H153  H     0.356355     -0.152774      0.423807 
 H154  H     0.383526     -0.263699      0.401096 
 H155  H     0.440919     -0.173741      0.366731 
 N156  N     0.478936      0.474251      0.317769 
 C157  C    -0.478636      0.395568      0.287313 
 C158  C     0.391307      0.475713      0.289552 
 C159  C    -0.477172     -0.445073      0.294099 
 C160  C     0.391033      0.479174      0.207609 
 H161  H     0.357530      0.416336      0.307479 
 H162  H     0.358088     -0.466449      0.311825 
 C163  C    -0.477211      0.401152      0.205569 
 H164  H    -0.413899      0.391089      0.308971 
 H165  H     0.487952      0.335305      0.303940 
 C166  C    -0.478600     -0.439843      0.212540 
 H167  H     0.492339     -0.386043      0.317356 
 H168  H    -0.411290     -0.446102      0.313751 
 H169  H    -0.411399      0.402741      0.187505 
 H170  H     0.492665      0.342255      0.180869 
 H171  H     0.358380      0.420721      0.184663 
 H172  H     0.356308     -0.462062      0.189007 
 H173  H    -0.413559     -0.436244      0.192947 
 N174  N     0.478482      0.481834      0.181180 
 H175  H     0.488412     -0.379376      0.195067 
 C176  C    -0.187239     -0.261815     -0.047096 
 C177  C    -0.188318     -0.193195      0.003111 
 C178  C    -0.252420     -0.188992      0.053053 
 C179  C    -0.313989     -0.255630      0.054464 
 C180  C    -0.314478     -0.323252      0.003257 
 C181  C    -0.250508     -0.327396     -0.047179 
 O182  O    -0.255454     -0.121511      0.101467 
 C183  C    -0.300757     -0.044087      0.078934 
 C184  C    -0.294153      0.027356      0.136134 
 C185  C    -0.359019      0.102355      0.127718 
 C186  C    -0.350951      0.174535      0.184921 
 O187  O    -0.253929     -0.395957     -0.094997 
 C188  C    -0.184637     -0.415259     -0.140227 
 C189  C    -0.220673     -0.477446     -0.196498 
 C190  C    -0.157885      0.490117     -0.251482 
 C191  C    -0.202746      0.456206     -0.318680 
 H192  H    -0.362576     -0.251895      0.094288 
 H193  H    -0.136662     -0.264170     -0.085342 
 H194  H    -0.160477     -0.354494     -0.164275 
 H195  H    -0.133086     -0.446235     -0.109721 
 H196  H    -0.273986     -0.020120      0.029655 
 H197  H    -0.367033     -0.062727      0.068086 
 H198  H    -0.249481      0.464465     -0.171697 
 H199  H    -0.271941     -0.441567     -0.223546 
 H200  H    -0.301381     -0.002256      0.188122 
 H201  H    -0.230103      0.055978      0.135862 
 H202  H    -0.351680      0.132554      0.075993 
 H203  H    -0.423276      0.074298      0.127963 
 H204  H    -0.114244     -0.455953     -0.264031 
 H205  H    -0.118292      0.437214     -0.229012 
 H206  H    -0.157478      0.439324     -0.359695 
 H207  H    -0.241004      0.396849     -0.308851 
 H208  H    -0.245148     -0.493340     -0.340816 
 H209  H    -0.397572      0.227432      0.176431 
 H210  H    -0.361067      0.147383      0.237289 
 H211  H    -0.287957      0.205319      0.185186 
 Cu212  Cu    -0.000691     -0.017021     -0.427906 
 Cu213  Cu    -0.006912     -0.016261      0.435561 
 O214  O    -0.092223      0.079520      0.443736 
 C215  C    -0.119330      0.103817     -0.496549 
 O216  O    -0.092862      0.073734     -0.438051 
 O217  O     0.083920      0.074382      0.443859 
 C218  C     0.113661      0.100597     -0.496980 
 O219  O     0.089397      0.074804     -0.437232 
 O220  O    -0.099008     -0.105152      0.444576 
 C221  C    -0.119897     -0.136088     -0.496370 
 O222  O    -0.087368     -0.112599     -0.437423 
 O223  O     0.078229     -0.113442      0.444539 
 C224  C     0.109552     -0.138583     -0.497091 
 O225  O     0.090581     -0.106851     -0.437098 
 Cu226  Cu     0.497582      0.481586     -0.431678 
 Cu227  Cu     0.489270      0.481735      0.431662 
 O228  O     0.389168     -0.438789      0.442364 
 C229  C     0.368518     -0.409805     -0.497193 
 O230  O     0.401533     -0.434291     -0.439376 
 O231  O    -0.431658     -0.414518      0.439958 
 C232  C    -0.398610     -0.389091      0.498118 
 O233  O    -0.419750     -0.417985     -0.442106 
 O234  O     0.410434      0.380091      0.438703 
 C235  C     0.388515      0.352175      0.498443 
 O236  O     0.417861      0.379093     -0.442397 
 O237  O    -0.411477      0.399612      0.440508 
 C238  C    -0.381181      0.373777      0.499055 
 O239  O    -0.407870      0.397329     -0.440881 
 C240  C    -0.296915      0.259668     -0.439867 
 C241  C    -0.308896      0.309191      0.499160 
 C242  C    -0.257180      0.293805      0.440874 
 C243  C    -0.197583      0.225119      0.442784 
 C244  C    -0.186611      0.174504     -0.496580 
 C245  C    -0.237569      0.190985     -0.438193 
 O246  O    -0.263026      0.339542      0.379630 
 C247  C    -0.236114      0.430685      0.382435 
 C248  C    -0.226856      0.461374      0.307234 
 C249  C    -0.208249     -0.438978      0.301210 
 C250  C    -0.205312     -0.407549      0.225135 
 O251  O    -0.229116      0.143625     -0.378099 
 C252  C    -0.296488      0.083286     -0.363276 
 C253  C    -0.291904      0.003884     -0.413498 
 C254  C    -0.350460     -0.073619     -0.395721 
 C255  C    -0.326029     -0.119368     -0.327012 
 H256  H    -0.159225      0.213780      0.396510 
 H257  H    -0.335199      0.271311     -0.393562 
 H258  H    -0.288165      0.063040     -0.308389 
 H259  H    -0.358004      0.117104     -0.367681 
 H260  H    -0.282806      0.471664      0.410256 
 H261  H    -0.175704      0.436032      0.411769 
 H262  H    -0.305611      0.025586     -0.467355 
 H263  H    -0.226623     -0.021113     -0.414340 
 H264  H    -0.176068      0.423052      0.282232 
 H265  H    -0.285008      0.445687      0.277136 
 H266  H    -0.257012     -0.401255      0.329324 
 H267  H    -0.147906     -0.423272      0.328185 
 H268  H    -0.416321     -0.050448     -0.393645 
 H269  H    -0.348638     -0.122792     -0.438957 
 H270  H    -0.363288     -0.180103     -0.320471 
 H271  H    -0.259297     -0.139067     -0.326513 
 H272  H    -0.335834     -0.076070     -0.281045 
 H273  H    -0.193726     -0.335696      0.223071 
 H274  H    -0.154942     -0.441127      0.195959 
 H275  H    -0.265215     -0.420732      0.196934 
 N276  N    -0.015887     -0.007235     -0.176995 
 C277  C     0.015839     -0.094178     -0.202318 
 C278  C    -0.101263      0.005638     -0.207690 
 C279  C     0.039484      0.063518     -0.203711 
 C280  C    -0.097029      0.008591     -0.289382 
 H281  H    -0.142146     -0.049224     -0.190935 
 H282  H    -0.128967      0.067470     -0.186690 
 C283  C     0.012855     -0.099594     -0.284027 
 H284  H     0.081165     -0.102822     -0.183108 
 H285  H    -0.021614     -0.148138     -0.179659 
 C286  C     0.047460      0.055329     -0.285147 
 H287  H     0.012163      0.128405     -0.188990 
 H288  H     0.102019      0.060289     -0.177692 
 H289  H     0.074384     -0.121015     -0.304621 
 H290  H    -0.034320     -0.149123     -0.301728 
 H291  H    -0.142882     -0.037830     -0.313864 
 H292  H    -0.113360      0.075558     -0.307519 
 H293  H     0.112310      0.036581     -0.299505 
 N294  N    -0.011169     -0.013017     -0.313829 
 H295  H     0.034295      0.119493     -0.310133 
 C296  C     0.245666      0.302641      0.459250 
 C297  C     0.319063      0.284854      0.498581 
 C298  C     0.326100      0.207596     -0.461436 
 C299  C     0.257312      0.149287     -0.458041 
 C300  C     0.184001      0.167035     -0.497366 
 C301  C     0.176762      0.244808      0.463181 
 O302  O     0.399224      0.189342     -0.425407 
 C303  C     0.444688      0.112869     -0.450278 
 C304  C     0.496294      0.137834      0.486057 
 C305  C    -0.467323      0.057501      0.446198 
 C306  C    -0.409964      0.084057      0.385959 
 O307  O     0.102777      0.265017      0.429095 
 C308  C     0.047622      0.323984      0.467028 
 C309  C     0.024552      0.282377     -0.463376 
 C310  C    -0.036960      0.334898     -0.417646 
 C311  C    -0.053128      0.287009     -0.348561 
 H312  H     0.262213      0.089788     -0.426177 
 H313  H     0.239739      0.362575      0.428060 
 H314  H     0.078791      0.388867      0.474890 
 H315  H    -0.009310      0.334517      0.434219 
 H316  H     0.486147      0.090201     -0.407228 
 H317  H     0.400550      0.058216     -0.463151 
 H318  H    -0.003087      0.216662     -0.474374 
 H319  H     0.082050      0.270584     -0.431705 
 H320  H     0.457472      0.176773      0.449206 
 H321  H    -0.451847      0.182208     -0.496726 
 H322  H    -0.431972      0.015168      0.482830 
 H323  H     0.480448      0.016186      0.425196 
 H324  H    -0.011401      0.401742     -0.406639 
 H325  H    -0.096990      0.343928     -0.446670 
 H326  H    -0.098390      0.322360     -0.315496 
 H327  H    -0.078807      0.220271     -0.358710 
 H328  H     0.005394      0.279256     -0.317593 
 H329  H    -0.385127      0.025362      0.358363 
 H330  H    -0.444397      0.124423      0.347378 
 H331  H    -0.355591      0.123239      0.405344 
 C332  C     0.237659     -0.208109     -0.444808 
 C333  C     0.175414     -0.210382     -0.497916 
 C334  C     0.174509     -0.277866      0.450371 
 C335  C     0.236930     -0.344050      0.452657 
 C336  C     0.299652     -0.341225     -0.494654 
 C337  C     0.300509     -0.273748     -0.442945 
 O338  O     0.111529     -0.275665      0.400139 
 C339  C     0.109329     -0.338937      0.343207 
 C340  C     0.052235     -0.300641      0.286159 
 C341  C     0.042697     -0.360349      0.220618 
 C342  C    -0.002540     -0.315112      0.158961 
 O343  O     0.363523     -0.275980     -0.392820 
 C344  C     0.381663     -0.200823     -0.348080 
 C345  C     0.447972     -0.231307     -0.294739 
 C346  C     0.482858     -0.158461     -0.245110 
 C347  C    -0.458009     -0.194224     -0.187453 
 H348  H     0.237320     -0.397410      0.413329 
 H349  H     0.237109     -0.155181     -0.405128 
 H350  H     0.405096     -0.145936     -0.380079 
 H351  H     0.323948     -0.178844     -0.321516 
 H352  H     0.173179     -0.350083      0.322819 
 H353  H     0.084874     -0.402559      0.362278 
 H354  H     0.419811     -0.283321     -0.262676 
 H355  H    -0.499151     -0.262568     -0.322749 
 H356  H    -0.010730     -0.286956      0.307678 
 H357  H     0.078056     -0.236231      0.270558 
 H358  H     0.105345     -0.383279      0.203764 
 H359  H     0.007314     -0.420101      0.234760 
 H360  H    -0.484433     -0.107935     -0.275697 
 H361  H     0.430261     -0.123828     -0.220102 
 H362  H    -0.433488     -0.140183     -0.153532 
 H363  H    -0.490996     -0.241096     -0.153623 
 H364  H    -0.403433     -0.229329     -0.209462 
 H365  H    -0.009388     -0.360734      0.113724 
 H366  H    -0.066137     -0.292632      0.173025 
 H367  H     0.032552     -0.256811      0.141251 
 N368  N     0.483839      0.480070     -0.180252 
 C369  C     0.482419      0.387226     -0.207036 
 C370  C     0.409797     -0.473009     -0.209587 
 C371  C    -0.439417     -0.476930     -0.206566 
 C372  C     0.409590     -0.478359     -0.291518 
 H373  H     0.351869      0.498063     -0.188298 
 H374  H     0.411698     -0.403279     -0.191300 
 C375  C     0.485126      0.384324     -0.288994 
 H376  H    -0.463135      0.351183     -0.184736 
 H377  H     0.425279      0.353989     -0.187999 
 C378  C    -0.439081     -0.478022     -0.288424 
 H379  H    -0.435488     -0.408076     -0.186312 
 H380  H    -0.384449      0.487110     -0.185275 
 H381  H    -0.458089      0.348914     -0.307085 
 H382  H     0.430214      0.347804     -0.311026 
 H383  H     0.353297      0.486220     -0.311804 
 H384  H     0.407058     -0.411450     -0.313687 
 H385  H    -0.381903      0.488838     -0.307967 
 N386  N     0.485640      0.475280     -0.317241 
 H387  H    -0.438266     -0.409604     -0.308197 
 C388  C    -0.276100     -0.315048     -0.441919 
 C389  C    -0.326587     -0.323177      0.497134 
 C390  C    -0.308688     -0.270983      0.438300 
 C391  C    -0.239110     -0.212767      0.441173 
 C392  C    -0.189639     -0.204218     -0.497725 
 C393  C    -0.207035     -0.256649     -0.439625 
 O394  O    -0.359177     -0.276445      0.379150 
 C395  C    -0.350124     -0.208946      0.327175 
 C396  C    -0.417789     -0.220440      0.270401 
 C397  C    -0.423647     -0.141178      0.220833 
 C398  C    -0.497131     -0.146380      0.167450 
 O399  O    -0.160291     -0.245477     -0.379494 
 C400  C    -0.115875     -0.320626     -0.352687 
 C401  C    -0.024646     -0.319073     -0.376974 
 C402  C     0.035403     -0.372928     -0.329853 
 C403  C     0.128776     -0.357405     -0.345566 
 H404  H    -0.224022     -0.171888      0.396184 
 H405  H    -0.289933     -0.352983     -0.395173 
 H406  H    -0.119229     -0.315348     -0.295193 
 H407  H    -0.147055     -0.382820     -0.369533 
 H408  H    -0.355922     -0.143289      0.352925 
 H409  H    -0.287132     -0.214017      0.303629 
 H410  H    -0.021502     -0.343953     -0.431483 
 H411  H    -0.001854     -0.250110     -0.378519 
 H412  H    -0.404154     -0.280838      0.239514 
 H413  H    -0.479157     -0.231158      0.294854 
 H414  H    -0.429079     -0.079216      0.251768 
 H415  H    -0.363747     -0.136819      0.192863 
 H416  H     0.024379     -0.355248     -0.274529 
 H417  H     0.020556     -0.444116     -0.335670 
 H418  H     0.169994     -0.395043     -0.309888 
 H419  H     0.143538     -0.377528     -0.399618 
 H420  H     0.145506     -0.286925     -0.339040 
 H421  H    -0.494857     -0.091170      0.130489 
 H422  H    -0.496117     -0.208601      0.136594 
 H423  H     0.441701     -0.142151      0.193546 
loop_  
_geom_bond_atom_site_label_1  
_geom_bond_atom_site_label_2  
Cu0   Cu1 
Cu0   O4 
Cu0   O7 
Cu0   O10 
Cu0   O13 
Cu0   N82 
Cu1   O2 
Cu1   O5 
Cu1   O8 
Cu1   O11 
Cu1   N276 
O2   C3 
C3   O4 
C3   C29 
O5   C6 
C6   O7 
C6   C88 
O8   C9 
C9   O10 
C9   C177 
O11   C12 
C12   O13 
C12   C124 
Cu14   Cu15 
Cu14   O18 
Cu14   O21 
Cu14   O24 
Cu14   O27 
Cu14   N174 
Cu15   O16 
Cu15   O19 
Cu15   O22 
Cu15   O25 
Cu15   N368 
O16   C17 
C17   O18 
C17   C121 
O19   C20 
C20   O21 
C20   C180 
O22   C23 
C23   O24 
C23   C85 
O25   C26 
C26   O27 
C26   C32 
C28   C29 
C28   C33 
C28   H45 
C29   C30 
C30   C31 
C30   O34 
C31   C32 
C31   H44 
C32   C33 
C33   O39 
O34   C35 
C35   C36 
C35   H48 
C35   H49 
C36   C37 
C36   H52 
C36   H53 
C37   C38 
C37   H54 
C37   H55 
C38   H61 
C38   H62 
C38   H63 
O39   C40 
C40   C41 
C40   H46 
C40   H47 
C41   C42 
C41   H50 
C41   H51 
C42   C43 
C42   H56 
C42   H57 
C43   H58 
C43   H59 
C43   H60 
N64   C65 
N64   C66 
N64   C67 
N64   Cu213 
C65   C71 
C65   H72 
C65   H73 
C66   C68 
C66   H69 
C66   H70 
C67   C74 
C67   H75 
C67   H76 
C68   H79 
C68   H80 
C68   N82 
C71   H77 
C71   H78 
C71   N82 
C74   H81 
C74   N82 
C74   H83 
C84   C85 
C84   C89 
C84   H101 
C85   C86 
C86   C87 
C86   O90 
C87   C88 
C87   H100 
C88   C89 
C89   O95 
O90   C91 
C91   C92 
C91   H104 
C91   H105 
C92   C93 
C92   H108 
C92   H109 
C93   C94 
C93   H110 
C93   H111 
C94   H117 
C94   H118 
C94   H119 
O95   C96 
C96   C97 
C96   H102 
C96   H103 
C97   C98 
C97   H106 
C97   H107 
C98   C99 
C98   H112 
C98   H113 
C99   H114 
C99   H115 
C99   H116 
C120   C121 
C120   C125 
C120   H137 
C121   C122 
C122   C123 
C122   O126 
C123   C124 
C123   H136 
C124   C125 
C125   O131 
O126   C127 
C127   C128 
C127   H140 
C127   H141 
C128   C129 
C128   H144 
C128   H145 
C129   C130 
C129   H146 
C129   H147 
C130   H153 
C130   H154 
C130   H155 
O131   C132 
C132   C133 
C132   H138 
C132   H139 
C133   C134 
C133   H142 
C133   H143 
C134   C135 
C134   H148 
C134   H149 
C135   H150 
C135   H151 
C135   H152 
N156   C157 
N156   C158 
N156   C159 
N156   Cu227 
C157   C163 
C157   H164 
C157   H165 
C158   C160 
C158   H161 
C158   H162 
C159   C166 
C159   H167 
C159   H168 
C160   H171 
C160   H172 
C160   N174 
C163   H169 
C163   H170 
C163   N174 
C166   H173 
C166   N174 
C166   H175 
C176   C177 
C176   C181 
C176   H193 
C177   C178 
C178   C179 
C178   O182 
C179   C180 
C179   H192 
C180   C181 
C181   O187 
O182   C183 
C183   C184 
C183   H196 
C183   H197 
C184   C185 
C184   H200 
C184   H201 
C185   C186 
C185   H202 
C185   H203 
C186   H209 
C186   H210 
C186   H211 
O187   C188 
C188   C189 
C188   H194 
C188   H195 
C189   C190 
C189   H198 
C189   H199 
C190   C191 
C190   H204 
C190   H205 
C191   H206 
C191   H207 
C191   H208 
Cu212   Cu213 
Cu212   O216 
Cu212   O219 
Cu212   O222 
Cu212   O225 
Cu212   N294 
Cu213   O214 
Cu213   O217 
Cu213   O220 
Cu213   O223 
O214   C215 
C215   O216 
C215   C244 
O217   C218 
C218   O219 
C218   C300 
O220   C221 
C221   O222 
C221   C392 
O223   C224 
C224   O225 
C224   C333 
Cu226   Cu227 
Cu226   O230 
Cu226   O233 
Cu226   O236 
Cu226   O239 
Cu226   N386 
Cu227   O228 
Cu227   O231 
Cu227   O234 
Cu227   O237 
O228   C229 
C229   O230 
C229   C336 
O231   C232 
C232   O233 
C232   C389 
O234   C235 
C235   O236 
C235   C297 
O237   C238 
C238   O239 
C238   C241 
C240   C241 
C240   C245 
C240   H257 
C241   C242 
C242   C243 
C242   O246 
C243   C244 
C243   H256 
C244   C245 
C245   O251 
O246   C247 
C247   C248 
C247   H260 
C247   H261 
C248   C249 
C248   H264 
C248   H265 
C249   C250 
C249   H266 
C249   H267 
C250   H273 
C250   H274 
C250   H275 
O251   C252 
C252   C253 
C252   H258 
C252   H259 
C253   C254 
C253   H262 
C253   H263 
C254   C255 
C254   H268 
C254   H269 
C255   H270 
C255   H271 
C255   H272 
N276   C277 
N276   C278 
N276   C279 
C277   C283 
C277   H284 
C277   H285 
C278   C280 
C278   H281 
C278   H282 
C279   C286 
C279   H287 
C279   H288 
C280   H291 
C280   H292 
C280   N294 
C283   H289 
C283   H290 
C283   N294 
C286   H293 
C286   N294 
C286   H295 
C296   C297 
C296   C301 
C296   H313 
C297   C298 
C298   C299 
C298   O302 
C299   C300 
C299   H312 
C300   C301 
C301   O307 
O302   C303 
C303   C304 
C303   H316 
C303   H317 
C304   C305 
C304   H320 
C304   H321 
C305   C306 
C305   H322 
C305   H323 
C306   H329 
C306   H330 
C306   H331 
O307   C308 
C308   C309 
C308   H314 
C308   H315 
C309   C310 
C309   H318 
C309   H319 
C310   C311 
C310   H324 
C310   H325 
C311   H326 
C311   H327 
C311   H328 
C332   C333 
C332   C337 
C332   H349 
C333   C334 
C334   C335 
C334   O338 
C335   C336 
C335   H348 
C336   C337 
C337   O343 
O338   C339 
C339   C340 
C339   H352 
C339   H353 
C340   C341 
C340   H356 
C340   H357 
C341   C342 
C341   H358 
C341   H359 
C342   H365 
C342   H366 
C342   H367 
O343   C344 
C344   C345 
C344   H350 
C344   H351 
C345   C346 
C345   H354 
C345   H355 
C346   C347 
C346   H360 
C346   H361 
C347   H362 
C347   H363 
C347   H364 
N368   C369 
N368   C370 
N368   C371 
C369   C375 
C369   H376 
C369   H377 
C370   C372 
C370   H373 
C370   H374 
C371   C378 
C371   H379 
C371   H380 
C372   H383 
C372   H384 
C372   N386 
C375   H381 
C375   H382 
C375   N386 
C378   H385 
C378   N386 
C378   H387 
C388   C389 
C388   C393 
C388   H405 
C389   C390 
C390   C391 
C390   O394 
C391   C392 
C391   H404 
C392   C393 
C393   O399 
O394   C395 
C395   C396 
C395   H408 
C395   H409 
C396   C397 
C396   H412 
C396   H413 
C397   C398 
C397   H414 
C397   H415 
C398   H421 
C398   H422 
C398   H423 
O399   C400 
C400   C401 
C400   H406 
C400   H407 
C401   C402 
C401   H410 
C401   H411 
C402   C403 
C402   H416 
C402   H417 
C403   H418 
C403   H419 
C403   H420 
  
#END  
