data_
_symmetry_cell_setting           triclinic 
_symmetry_space_group_name_H-M   'P 1' 
_symmetry_Int_Tables_number      1 
loop_ 
_symmetry_equiv_pos_site_id 
_symmetry_equiv_pos_as_xyz 
1 x,y,z 
_cell_length_a             15.376175        
_cell_length_b             15.431204        
_cell_length_c             19.041751        
_cell_angle_alpha          90.546716        
_cell_angle_beta           90.105274        
_cell_angle_gamma          90.023473        
loop_  
_atom_site_label   
_atom_site_type_symbol  
_atom_site_fract_x  
_atom_site_fract_y  
_atom_site_fract_z 
 Cu0  Cu    -0.001580      0.002805      0.062621 
 Cu1  Cu     0.003352      0.004716     -0.073721 
 O2  O    -0.100072      0.080852     -0.064965 
 C3  C    -0.119537      0.116944     -0.006644 
 O4  O    -0.083680      0.101196      0.052330 
 O5  O     0.080258      0.108124     -0.060257 
 C6  C     0.116233      0.123400     -0.000978 
 O7  O     0.098364      0.084250      0.055776 
 O8  O    -0.074216     -0.100094     -0.064561 
 C9  C    -0.115200     -0.114100     -0.007608 
 O10  O    -0.101226     -0.076577      0.051148 
 O11  O     0.106974     -0.070222     -0.064035 
 C12  C     0.122204     -0.108520     -0.006427 
 O13  O     0.080225     -0.096289      0.050503 
 Cu14  Cu    -0.497041     -0.495562      0.069547 
 Cu15  Cu    -0.495984     -0.492974     -0.066838 
 O16  O     0.426818     -0.389602     -0.053334 
 C17  C     0.387774     -0.375144      0.004702 
 O18  O     0.402411     -0.415313      0.061570 
 O19  O    -0.392799     -0.417841     -0.056529 
 C20  C    -0.376759     -0.380451      0.001978 
 O21  O    -0.415537     -0.394469      0.059908 
 O22  O     0.400918      0.429830     -0.058075 
 C23  C     0.383076      0.391164     -0.001090 
 O24  O     0.421705      0.404357      0.057363 
 O25  O    -0.417131      0.404647     -0.057657 
 C26  C    -0.379621      0.388356      0.000583 
 O27  O    -0.397143      0.424436      0.059268 
 C28  C    -0.307568      0.264285     -0.059432 
 C29  C    -0.310302      0.319735     -0.000770 
 C30  C    -0.250889      0.309742      0.054814 
 C31  C    -0.191538      0.241016      0.052497 
 C32  C    -0.188723      0.185592     -0.006174 
 C33  C    -0.247635      0.195782     -0.062100 
 O34  O    -0.251878      0.365713      0.111103 
 C35  C    -0.169585      0.393806      0.139415 
 C36  C    -0.175131      0.491194      0.152814 
 C37  C    -0.086663     -0.465062      0.165861 
 C38  C    -0.093958     -0.366865      0.177936 
 O39  O    -0.245010      0.138872     -0.117897 
 C40  C    -0.322909      0.125481     -0.158305 
 C41  C    -0.311097      0.046534     -0.205833 
 C42  C    -0.391984      0.024061     -0.249903 
 C43  C    -0.377775     -0.053503     -0.299586 
 H44  H    -0.146823      0.232201      0.096443 
 H45  H    -0.353240      0.273448     -0.102667 
 H46  H    -0.377856      0.115409     -0.122312 
 H47  H    -0.336177      0.183505     -0.189790 
 H48  H    -0.157074      0.358608      0.188441 
 H49  H    -0.116014      0.378702      0.102982 
 H50  H    -0.256244      0.057683     -0.241604 
 H51  H    -0.293152     -0.009736     -0.173621 
 H52  H    -0.206918     -0.477787      0.107589 
 H53  H    -0.217555     -0.496136      0.198258 
 H54  H    -0.054935     -0.494816      0.211526 
 H55  H    -0.043710     -0.477797      0.120707 
 H56  H    -0.446855      0.010268     -0.214624 
 H57  H    -0.411214      0.080921     -0.280835 
 H58  H    -0.436577     -0.067639     -0.330561 
 H59  H    -0.324700     -0.041043     -0.336818 
 H60  H    -0.361013     -0.112322     -0.270388 
 H61  H    -0.029742     -0.337406      0.186783 
 H62  H    -0.123444     -0.334823      0.132365 
 H63  H    -0.134399     -0.351756      0.224005 
 N64  N    -0.011092     -0.013466      0.312695 
 C65  C    -0.099585     -0.030846      0.285196 
 C66  C     0.017008      0.072123      0.286869 
 C67  C     0.048281     -0.079953      0.283514 
 C68  C     0.013283      0.075113      0.205158 
 H69  H    -0.024055      0.123301      0.310338 
 H70  H     0.084150      0.083974      0.304741 
 C71  C    -0.099713     -0.031518      0.202995 
 H72  H    -0.122665     -0.093545      0.305276 
 H73  H    -0.144161      0.019082      0.306003 
 C74  C     0.048704     -0.076962      0.201569 
 H75  H     0.114320     -0.068743      0.304328 
 H76  H     0.027573     -0.144267      0.302024 
 H77  H    -0.118988     -0.095914      0.182707 
 H78  H    -0.147088      0.015114      0.181941 
 H79  H    -0.033842      0.124363      0.187732 
 H80  H     0.077079      0.094152      0.184111 
 H81  H     0.030162     -0.140496      0.179087 
 N82  N    -0.012352     -0.010270      0.175744 
 H83  H     0.114485     -0.062540      0.182131 
 C84  C     0.198563      0.240813     -0.060517 
 C85  C     0.184679      0.193366      0.000843 
 C86  C     0.234984      0.210885      0.061075 
 C87  C     0.297579      0.276927      0.059838 
 C88  C     0.311814      0.323987     -0.001675 
 C89  C     0.260724      0.307209     -0.061579 
 O90  O     0.221822      0.164984      0.121129 
 C91  C     0.297642      0.130992      0.155102 
 C92  C     0.269562      0.050492      0.194395 
 C93  C     0.344737      0.000273      0.228047 
 C94  C     0.314070     -0.081970      0.265201 
 O95  O     0.274092      0.353243     -0.121491 
 C96  C     0.198788      0.386614     -0.156388 
 C97  C     0.228581      0.464288     -0.198459 
 C98  C     0.154481     -0.484729     -0.232754 
 C99  C     0.187211     -0.404607     -0.271726 
 H100  H     0.334832      0.290590      0.107438 
 H101  H     0.162224      0.226372     -0.108424 
 H102  H     0.170383      0.336174     -0.190752 
 H103  H     0.149874      0.405867     -0.117050 
 H104  H     0.347268      0.114665      0.115466 
 H105  H     0.324871      0.180217      0.191216 
 H106  H     0.264868     -0.491828     -0.163021 
 H107  H     0.274501      0.442847     -0.239388 
 H108  H     0.222186      0.068592      0.235285 
 H109  H     0.235405      0.007229      0.157127 
 H110  H     0.392345     -0.017348      0.187224 
 H111  H     0.379180      0.042641      0.265766 
 H112  H     0.118542      0.472651     -0.269323 
 H113  H     0.107818     -0.464583     -0.191994 
 H114  H     0.133283     -0.368051     -0.295005 
 H115  H     0.222134     -0.360352     -0.236013 
 H116  H     0.231948     -0.422622     -0.314384 
 H117  H     0.369097     -0.117652      0.287674 
 H118  H     0.269056     -0.066472      0.308307 
 H119  H     0.280288     -0.126108      0.228623 
 C120  C     0.195507     -0.229652      0.053717 
 C121  C     0.194185     -0.174371     -0.004010 
 C122  C     0.257583     -0.181507     -0.056773 
 C123  C     0.319352     -0.248313     -0.052804 
 C124  C     0.320264     -0.304368      0.004787 
 C125  C     0.259283     -0.294188      0.059381 
 O126  O     0.255847     -0.121857     -0.109687 
 C127  C     0.327330     -0.112930     -0.157377 
 C128  C     0.310670     -0.168339     -0.222627 
 C129  C     0.381720     -0.159703     -0.278710 
 C130  C     0.358548     -0.205884     -0.347864 
 O131  O     0.262176     -0.347353      0.116745 
 C132  C     0.197843     -0.336745      0.170878 
 C133  C     0.220245     -0.396144      0.231397 
 C134  C     0.152824     -0.395376      0.290774 
 C135  C     0.178647     -0.453495      0.352224 
 H136  H     0.366884     -0.256511     -0.094820 
 H137  H     0.145663     -0.222615      0.094140 
 H138  H     0.197209     -0.268933      0.189579 
 H139  H     0.133339     -0.352819      0.149007 
 H140  H     0.330614     -0.043901     -0.171271 
 H141  H     0.389513     -0.128855     -0.131753 
 H142  H     0.228070     -0.462968      0.211492 
 H143  H     0.283541     -0.376014      0.253177 
 H144  H     0.304422     -0.236896     -0.207948 
 H145  H     0.247584     -0.149997     -0.245618 
 H146  H     0.393537     -0.090610     -0.289126 
 H147  H     0.443289     -0.185777     -0.258168 
 H148  H     0.143813     -0.328508      0.310240 
 H149  H     0.089350     -0.416362      0.269832 
 H150  H     0.128051     -0.453480      0.392823 
 H151  H     0.188630      0.479097      0.335092 
 H152  H     0.239369     -0.431206      0.377060 
 H153  H     0.411637     -0.200716     -0.386182 
 H154  H     0.345572     -0.275146     -0.340058 
 H155  H     0.300027     -0.177648     -0.371745 
 N156  N    -0.493326      0.482899      0.318893 
 C157  C     0.486914      0.395788      0.289768 
 C158  C     0.440431     -0.456245      0.292317 
 C159  C    -0.407250     -0.490071      0.292196 
 C160  C     0.441598     -0.453953      0.210506 
 H161  H     0.375985     -0.476698      0.311365 
 H162  H     0.452828     -0.390991      0.314191 
 C163  C     0.486107      0.397545      0.207680 
 H164  H    -0.464337      0.349437      0.309149 
 H165  H     0.423444      0.374034      0.309908 
 C166  C    -0.406561     -0.490293      0.210258 
 H167  H    -0.392018     -0.424809      0.312615 
 H168  H    -0.356856      0.466299      0.313011 
 H169  H    -0.466767      0.350865      0.185572 
 H170  H     0.421542      0.378499      0.187597 
 H171  H     0.377430     -0.471906      0.189000 
 H172  H     0.456061     -0.387934      0.192331 
 H173  H    -0.358408      0.462923      0.190167 
 N174  N    -0.492852      0.485382      0.182085 
 H175  H    -0.387703     -0.426173      0.190275 
 C176  C    -0.161271     -0.266940     -0.026478 
 C177  C    -0.184690     -0.181930     -0.008612 
 C178  C    -0.269516     -0.160877      0.012698 
 C179  C    -0.331170     -0.227391      0.019359 
 C180  C    -0.307666     -0.312330      0.001612 
 C181  C    -0.223126     -0.333335     -0.020168 
 O182  O    -0.287724     -0.075165      0.025333 
 C183  C    -0.375828     -0.049824      0.038969 
 C184  C    -0.379658      0.048610      0.040600 
 C185  C    -0.468656      0.084814      0.062749 
 C186  C    -0.472562      0.184070      0.061669 
 O187  O    -0.206193     -0.419085     -0.033461 
 C188  C    -0.119076     -0.445795     -0.048772 
 C189  C    -0.118413      0.455848     -0.053044 
 C190  C    -0.030880      0.417808     -0.076690 
 C191  C    -0.029795      0.318484     -0.077386 
 H192  H    -0.397716     -0.213463      0.035967 
 H193  H    -0.094661     -0.281311     -0.042552 
 H194  H    -0.098904     -0.417733     -0.098994 
 H195  H    -0.074624     -0.422333     -0.007280 
 H196  H    -0.418927     -0.075909     -0.002456 
 H197  H    -0.396232     -0.076615      0.089665 
 H198  H    -0.135325      0.429901     -0.001342 
 H199  H    -0.170127      0.433330     -0.088892 
 H200  H    -0.329039      0.074245      0.076140 
 H201  H    -0.363190      0.072837     -0.011812 
 H202  H     0.480516      0.058170      0.027881 
 H203  H    -0.484188      0.062091      0.115892 
 H204  H    -0.015435      0.441605     -0.129524 
 H205  H     0.021069      0.442019     -0.041748 
 H206  H     0.031847      0.293224     -0.097943 
 H207  H    -0.037777      0.292656     -0.024212 
 H208  H    -0.082058      0.291457     -0.110359 
 H209  H     0.464088      0.208149      0.079671 
 H210  H    -0.422680      0.213244      0.095875 
 H211  H    -0.462560      0.208831      0.008391 
 Cu212  Cu     0.003488     -0.007857     -0.437204 
 Cu213  Cu    -0.002570     -0.009923      0.426325 
 O214  O    -0.096162      0.078790      0.438919 
 C215  C    -0.111660      0.113906      0.498571 
 O216  O    -0.074343      0.094026     -0.444073 
 O217  O     0.084869      0.083982      0.432455 
 C218  C     0.122997      0.102336      0.490030 
 O219  O     0.105635      0.068662     -0.450714 
 O220  O    -0.091254     -0.102315      0.436972 
 C221  C    -0.121783     -0.120783      0.497216 
 O222  O    -0.098487     -0.086106     -0.444825 
 O223  O     0.093955     -0.096472      0.435581 
 C224  C     0.114256     -0.129444      0.494514 
 O225  O     0.080175     -0.110440     -0.446479 
 Cu226  Cu    -0.499023      0.494042     -0.431679 
 Cu227  Cu     0.497486      0.492168      0.431776 
 O228  O     0.412235     -0.412490      0.441026 
 C229  C     0.377331     -0.394591      0.499882 
 O230  O     0.398131     -0.427152     -0.441151 
 O231  O    -0.408817     -0.420192      0.439605 
 C232  C    -0.388150     -0.385010      0.497967 
 O233  O    -0.418476     -0.405731     -0.442194 
 O234  O     0.402701      0.406234      0.443522 
 C235  C     0.385581      0.371894     -0.497440 
 O236  O     0.421160      0.392711     -0.439238 
 O237  O    -0.415805      0.398284      0.438706 
 C238  C    -0.379160      0.379529      0.496562 
 O239  O    -0.397461      0.413699     -0.443920 
 C240  C    -0.278825      0.281499     -0.439838 
 C241  C    -0.309022      0.311413      0.495392 
 C242  C    -0.274617      0.278000      0.432291 
 C243  C    -0.209570      0.214309      0.435367 
 C244  C    -0.179600      0.184147     -0.499869 
 C245  C    -0.213174      0.218349     -0.436765 
 O246  O    -0.305091      0.309585      0.369695 
 C247  C    -0.281331      0.268948      0.304371 
 C248  C    -0.326994      0.181584      0.296981 
 C249  C    -0.297383      0.129187      0.232528 
 C250  C    -0.334777      0.037069      0.231044 
 O251  O    -0.181238      0.188151     -0.374183 
 C252  C    -0.206003      0.228943     -0.309205 
 C253  C    -0.164386      0.318329     -0.302319 
 C254  C    -0.201872      0.372541     -0.241682 
 C255  C    -0.168228      0.466070     -0.241161 
 H256  H    -0.181781      0.187889      0.386997 
 H257  H    -0.307081      0.307632     -0.391530 
 H258  H    -0.277423      0.231152     -0.305376 
 H259  H    -0.182965      0.187269     -0.266431 
 H260  H    -0.301989      0.312413      0.261955 
 H261  H    -0.210088      0.263415      0.300581 
 H262  H    -0.093782      0.310826     -0.294545 
 H263  H    -0.171877      0.354821     -0.351380 
 H264  H    -0.316260      0.142333      0.344210 
 H265  H    -0.397799      0.191965      0.294012 
 H266  H    -0.316318      0.163558      0.184442 
 H267  H    -0.225907      0.126170      0.231975 
 H268  H    -0.273249      0.372617     -0.245565 
 H269  H    -0.186312      0.341297     -0.191472 
 H270  H    -0.196191     -0.496169     -0.197510 
 H271  H    -0.097114      0.467820     -0.235660 
 H272  H    -0.185117      0.499282     -0.290138 
 H273  H    -0.311364      0.000307      0.185150 
 H274  H    -0.315786      0.000960      0.278130 
 H275  H    -0.406190      0.038209      0.228849 
 N276  N     0.008635      0.011162     -0.187255 
 C277  C    -0.077337     -0.017318     -0.213611 
 C278  C     0.026449      0.098322     -0.215648 
 C279  C     0.075644     -0.048684     -0.214956 
 C280  C     0.028402      0.095346     -0.297774 
 H281  H    -0.024131      0.143393     -0.196562 
 H282  H     0.088989      0.122166     -0.194650 
 C283  C    -0.080033     -0.015886     -0.295524 
 H284  H    -0.090721     -0.083154     -0.194485 
 H285  H    -0.127937      0.025169     -0.191302 
 C286  C     0.071589     -0.053700     -0.296779 
 H287  H     0.140023     -0.025480     -0.197364 
 H288  H     0.066388     -0.113414     -0.192236 
 H289  H    -0.100248     -0.079467     -0.316540 
 H290  H    -0.128393      0.031335     -0.314218 
 H291  H    -0.017313      0.142851     -0.319910 
 H292  H     0.093522      0.112780     -0.317241 
 H293  H     0.054377     -0.119869     -0.314118 
 N294  N     0.006045      0.007530     -0.324213 
 H295  H     0.135652     -0.038918     -0.319790 
 C296  C     0.274950      0.286286      0.437327 
 C297  C     0.317951      0.301378     -0.498630 
 C298  C     0.299223      0.250139     -0.439737 
 C299  C     0.236363      0.184680     -0.446127 
 C300  C     0.193052      0.170218      0.490241 
 C301  C     0.212454      0.220563      0.431278 
 O302  O     0.342253      0.263443     -0.377307 
 C303  C     0.329696      0.201742     -0.322103 
 C304  C     0.387220      0.225628     -0.260016 
 C305  C     0.381759      0.161103     -0.199273 
 C306  C     0.438977      0.187118     -0.136559 
 O307  O     0.173143      0.202295      0.368318 
 C308  C     0.137050      0.271880      0.328057 
 C309  C     0.058834      0.310040      0.366554 
 C310  C     0.002777      0.369834      0.320962 
 C311  C    -0.070813      0.414091      0.362071 
 H312  H     0.220243      0.144573     -0.401072 
 H313  H     0.290825      0.324184      0.391050 
 H314  H     0.186576      0.321497      0.317342 
 H315  H     0.117304      0.244241      0.276933 
 H316  H     0.260957      0.202487     -0.305795 
 H317  H     0.346085      0.136382     -0.341901 
 H318  H     0.017814      0.257103      0.386538 
 H319  H     0.081647      0.346288      0.413155 
 H320  H     0.455220      0.230744     -0.277643 
 H321  H     0.368118      0.290169     -0.240506 
 H322  H     0.313742      0.155508     -0.181804 
 H323  H     0.400957      0.096294     -0.218296 
 H324  H     0.044344      0.419572      0.297088 
 H325  H    -0.024992      0.331875      0.277092 
 H326  H    -0.111169      0.454589      0.327812 
 H327  H    -0.113742      0.366286      0.386708 
 H328  H    -0.044907      0.456142      0.404073 
 H329  H     0.434511      0.139516     -0.094145 
 H330  H    -0.492608      0.192532     -0.152028 
 H331  H     0.419749      0.250358     -0.114650 
 C332  C     0.160437     -0.279735     -0.479631 
 C333  C     0.183164     -0.197693      0.495408 
 C334  C     0.268115     -0.178837      0.473387 
 C335  C     0.330489     -0.245175      0.473496 
 C336  C     0.307904     -0.326935      0.498757 
 C337  C     0.223345     -0.345593     -0.478453 
 O338  O     0.287151     -0.095409      0.454419 
 C339  C     0.377001     -0.070315      0.450540 
 C340  C     0.382677      0.027788      0.444290 
 C341  C     0.476243      0.060755      0.434316 
 C342  C     0.483339      0.159884      0.433784 
 O343  O     0.207023     -0.428675     -0.457423 
 C344  C     0.118942     -0.456608     -0.447667 
 C345  C     0.121009      0.445654     -0.437882 
 C346  C     0.031017      0.405657     -0.424744 
 C347  C     0.033482      0.306632     -0.419507 
 H348  H     0.396806     -0.233547      0.455263 
 H349  H     0.094182     -0.291984     -0.461649 
 H350  H     0.090982     -0.423709     -0.401407 
 H351  H     0.079383     -0.439508     -0.493795 
 H352  H     0.411284     -0.091754      0.498216 
 H353  H     0.407264     -0.102346      0.404809 
 H354  H     0.150028      0.415226     -0.484884 
 H355  H     0.164758      0.429651     -0.393963 
 H356  H     0.341913      0.049657      0.400218 
 H357  H     0.354855      0.057825      0.491912 
 H358  H    -0.482191      0.035323      0.476544 
 H359  H    -0.497452      0.034222      0.384841 
 H360  H     0.003426      0.433313     -0.376144 
 H361  H    -0.013570      0.424026     -0.467402 
 H362  H    -0.031612      0.279829     -0.410319 
 H363  H     0.057640      0.276980     -0.468356 
 H364  H     0.075955      0.285361     -0.376524 
 H365  H    -0.449101      0.180938      0.426088 
 H366  H     0.443882      0.188155      0.391619 
 H367  H     0.461258      0.188231      0.483816 
 N368  N    -0.487559     -0.486449     -0.180808 
 C369  C     0.479687      0.429114     -0.207084 
 C370  C     0.456466     -0.416836     -0.208743 
 C371  C    -0.399113     -0.473891     -0.209232 
 C372  C     0.454386     -0.420190     -0.290782 
 H373  H     0.390383     -0.423701     -0.187252 
 H374  H     0.481357     -0.353740     -0.189797 
 C375  C     0.478057      0.426452     -0.289010 
 H376  H    -0.478943      0.376728     -0.186538 
 H377  H     0.413863      0.418381     -0.186329 
 C378  C    -0.400565     -0.476456     -0.291449 
 H379  H    -0.373278     -0.411329     -0.189998 
 H380  H    -0.356281      0.475430     -0.188002 
 H381  H    -0.481443      0.372804     -0.309279 
 H382  H     0.411237      0.414986     -0.308045 
 H383  H     0.387314     -0.430484     -0.309592 
 H384  H     0.476926     -0.358402     -0.313008 
 H385  H    -0.357902      0.471880     -0.312035 
 N386  N    -0.490013     -0.491066     -0.317959 
 H387  H    -0.375820     -0.414965     -0.312605 
 C388  C    -0.246956     -0.195653      0.440722 
 C389  C    -0.191474     -0.188760      0.498908 
 C390  C    -0.200029     -0.244342     -0.443523 
 C391  C    -0.266052     -0.307028     -0.444358 
 C392  C    -0.321167     -0.314375      0.497237 
 C393  C    -0.313011     -0.258410      0.439767 
 O394  O    -0.142063     -0.235073     -0.389246 
 C395  C    -0.137875     -0.298315     -0.334744 
 C396  C    -0.065640     -0.269286     -0.285110 
 C397  C    -0.049921     -0.329947     -0.223090 
 C398  C     0.016669     -0.293988     -0.170132 
 O399  O    -0.370722     -0.267286      0.385120 
 C400  C    -0.371327     -0.205240      0.329473 
 C401  C    -0.441907     -0.232450      0.277583 
 C402  C    -0.453619     -0.170114      0.215938 
 C403  C     0.479963     -0.202257      0.161284 
 H404  H    -0.273326     -0.351213     -0.400360 
 H405  H    -0.239036     -0.151598      0.396672 
 H406  H    -0.384444     -0.140223      0.351479 
 H407  H    -0.307328     -0.204410      0.303512 
 H408  H    -0.200650     -0.301223     -0.307025 
 H409  H    -0.123956     -0.362568     -0.357873 
 H410  H    -0.426076     -0.297111      0.256469 
 H411  H     0.495751     -0.239005      0.305524 
 H412  H    -0.004740     -0.261964     -0.314924 
 H413  H    -0.081922     -0.204697     -0.264208 
 H414  H    -0.112181     -0.341359     -0.196266 
 H415  H    -0.027771     -0.393286     -0.243162 
 H416  H    -0.473899     -0.106314      0.236384 
 H417  H    -0.390315     -0.160380      0.190246 
 H418  H     0.470115     -0.154576      0.119533 
 H419  H    -0.498485     -0.262864      0.135979 
 H420  H     0.416201     -0.214763      0.185123 
 H421  H     0.029426     -0.340052     -0.127705 
 H422  H     0.079275     -0.279860     -0.195290 
 H423  H    -0.006493     -0.233524     -0.145574 
loop_  
_geom_bond_atom_site_label_1  
_geom_bond_atom_site_label_2  
Cu0   Cu1 
Cu0   O4 
Cu0   O7 
Cu0   O10 
Cu0   O13 
Cu0   N82 
Cu1   O2 
Cu1   O5 
Cu1   O8 
Cu1   O11 
Cu1   N276 
O2   C3 
C3   O4 
C3   C32 
O5   C6 
C6   O7 
C6   C85 
O8   C9 
C9   O10 
C9   C177 
O11   C12 
C12   O13 
C12   C121 
Cu14   Cu15 
Cu14   O18 
Cu14   O21 
Cu14   O24 
Cu14   O27 
Cu14   N174 
Cu15   O16 
Cu15   O19 
Cu15   O22 
Cu15   O25 
Cu15   N368 
O16   C17 
C17   O18 
C17   C124 
O19   C20 
C20   O21 
C20   C180 
O22   C23 
C23   O24 
C23   C88 
O25   C26 
C26   O27 
C26   C29 
C28   C29 
C28   C33 
C28   H45 
C29   C30 
C30   C31 
C30   O34 
C31   C32 
C31   H44 
C32   C33 
C33   O39 
O34   C35 
C35   C36 
C35   H48 
C35   H49 
C36   C37 
C36   H52 
C36   H53 
C37   C38 
C37   H54 
C37   H55 
C38   H61 
C38   H62 
C38   H63 
O39   C40 
C40   C41 
C40   H46 
C40   H47 
C41   C42 
C41   H50 
C41   H51 
C42   C43 
C42   H56 
C42   H57 
C43   H58 
C43   H59 
C43   H60 
N64   C65 
N64   C66 
N64   C67 
N64   Cu213 
C65   C71 
C65   H72 
C65   H73 
C66   C68 
C66   H69 
C66   H70 
C67   C74 
C67   H75 
C67   H76 
C68   H79 
C68   H80 
C68   N82 
C71   H77 
C71   H78 
C71   N82 
C74   H81 
C74   N82 
C74   H83 
C84   C85 
C84   C89 
C84   H101 
C85   C86 
C86   C87 
C86   O90 
C87   C88 
C87   H100 
C88   C89 
C89   O95 
O90   C91 
C91   C92 
C91   H104 
C91   H105 
C92   C93 
C92   H108 
C92   H109 
C93   C94 
C93   H110 
C93   H111 
C94   H117 
C94   H118 
C94   H119 
O95   C96 
C96   C97 
C96   H102 
C96   H103 
C97   C98 
C97   H106 
C97   H107 
C98   C99 
C98   H112 
C98   H113 
C99   H114 
C99   H115 
C99   H116 
C120   C121 
C120   C125 
C120   H137 
C121   C122 
C122   C123 
C122   O126 
C123   C124 
C123   H136 
C124   C125 
C125   O131 
O126   C127 
C127   C128 
C127   H140 
C127   H141 
C128   C129 
C128   H144 
C128   H145 
C129   C130 
C129   H146 
C129   H147 
C130   H153 
C130   H154 
C130   H155 
O131   C132 
C132   C133 
C132   H138 
C132   H139 
C133   C134 
C133   H142 
C133   H143 
C134   C135 
C134   H148 
C134   H149 
C135   H150 
C135   H151 
C135   H152 
N156   C157 
N156   C158 
N156   C159 
N156   Cu227 
C157   C163 
C157   H164 
C157   H165 
C158   C160 
C158   H161 
C158   H162 
C159   C166 
C159   H167 
C159   H168 
C160   H171 
C160   H172 
C160   N174 
C163   H169 
C163   H170 
C163   N174 
C166   H173 
C166   N174 
C166   H175 
C176   C177 
C176   C181 
C176   H193 
C177   C178 
C178   C179 
C178   O182 
C179   C180 
C179   H192 
C180   C181 
C181   O187 
O182   C183 
C183   C184 
C183   H196 
C183   H197 
C184   C185 
C184   H200 
C184   H201 
C185   C186 
C185   H202 
C185   H203 
C186   H209 
C186   H210 
C186   H211 
O187   C188 
C188   C189 
C188   H194 
C188   H195 
C189   C190 
C189   H198 
C189   H199 
C190   C191 
C190   H204 
C190   H205 
C191   H206 
C191   H207 
C191   H208 
Cu212   Cu213 
Cu212   O216 
Cu212   O219 
Cu212   O222 
Cu212   O225 
Cu212   N294 
Cu213   O214 
Cu213   O217 
Cu213   O220 
Cu213   O223 
O214   C215 
C215   O216 
C215   C244 
O217   C218 
C218   O219 
C218   C300 
O220   C221 
C221   O222 
C221   C389 
O223   C224 
C224   O225 
C224   C333 
Cu226   Cu227 
Cu226   O230 
Cu226   O233 
Cu226   O236 
Cu226   O239 
Cu226   N386 
Cu227   O228 
Cu227   O231 
Cu227   O234 
Cu227   O237 
O228   C229 
C229   O230 
C229   C336 
O231   C232 
C232   O233 
C232   C392 
O234   C235 
C235   O236 
C235   C297 
O237   C238 
C238   O239 
C238   C241 
C240   C241 
C240   C245 
C240   H257 
C241   C242 
C242   C243 
C242   O246 
C243   C244 
C243   H256 
C244   C245 
C245   O251 
O246   C247 
C247   C248 
C247   H260 
C247   H261 
C248   C249 
C248   H264 
C248   H265 
C249   C250 
C249   H266 
C249   H267 
C250   H273 
C250   H274 
C250   H275 
O251   C252 
C252   C253 
C252   H258 
C252   H259 
C253   C254 
C253   H262 
C253   H263 
C254   C255 
C254   H268 
C254   H269 
C255   H270 
C255   H271 
C255   H272 
N276   C277 
N276   C278 
N276   C279 
C277   C283 
C277   H284 
C277   H285 
C278   C280 
C278   H281 
C278   H282 
C279   C286 
C279   H287 
C279   H288 
C280   H291 
C280   H292 
C280   N294 
C283   H289 
C283   H290 
C283   N294 
C286   H293 
C286   N294 
C286   H295 
C296   C297 
C296   C301 
C296   H313 
C297   C298 
C298   C299 
C298   O302 
C299   C300 
C299   H312 
C300   C301 
C301   O307 
O302   C303 
C303   C304 
C303   H316 
C303   H317 
C304   C305 
C304   H320 
C304   H321 
C305   C306 
C305   H322 
C305   H323 
C306   H329 
C306   H330 
C306   H331 
O307   C308 
C308   C309 
C308   H314 
C308   H315 
C309   C310 
C309   H318 
C309   H319 
C310   C311 
C310   H324 
C310   H325 
C311   H326 
C311   H327 
C311   H328 
C332   C333 
C332   C337 
C332   H349 
C333   C334 
C334   C335 
C334   O338 
C335   C336 
C335   H348 
C336   C337 
C337   O343 
O338   C339 
C339   C340 
C339   H352 
C339   H353 
C340   C341 
C340   H356 
C340   H357 
C341   C342 
C341   H358 
C341   H359 
C342   H365 
C342   H366 
C342   H367 
O343   C344 
C344   C345 
C344   H350 
C344   H351 
C345   C346 
C345   H354 
C345   H355 
C346   C347 
C346   H360 
C346   H361 
C347   H362 
C347   H363 
C347   H364 
N368   C369 
N368   C370 
N368   C371 
C369   C375 
C369   H376 
C369   H377 
C370   C372 
C370   H373 
C370   H374 
C371   C378 
C371   H379 
C371   H380 
C372   H383 
C372   H384 
C372   N386 
C375   H381 
C375   H382 
C375   N386 
C378   H385 
C378   N386 
C378   H387 
C388   C389 
C388   C393 
C388   H405 
C389   C390 
C390   C391 
C390   O394 
C391   C392 
C391   H404 
C392   C393 
C393   O399 
O394   C395 
C395   C396 
C395   H408 
C395   H409 
C396   C397 
C396   H412 
C396   H413 
C397   C398 
C397   H414 
C397   H415 
C398   H421 
C398   H422 
C398   H423 
O399   C400 
C400   C401 
C400   H406 
C400   H407 
C401   C402 
C401   H410 
C401   H411 
C402   C403 
C402   H416 
C402   H417 
C403   H418 
C403   H419 
C403   H420 
  
#END  
