data_
_symmetry_cell_setting           triclinic 
_symmetry_space_group_name_H-M   'P 1' 
_symmetry_Int_Tables_number      1 
loop_ 
_symmetry_equiv_pos_site_id 
_symmetry_equiv_pos_as_xyz 
1 x,y,z 
_cell_length_a             15.028110        
_cell_length_b             15.730152        
_cell_length_c             19.057921        
_cell_angle_alpha          90.881909        
_cell_angle_beta           89.403808        
_cell_angle_gamma          89.925833        
loop_  
_atom_site_label   
_atom_site_type_symbol  
_atom_site_fract_x  
_atom_site_fract_y  
_atom_site_fract_z 
 Cu0  Cu     0.000064      0.003647      0.061938 
 Cu1  Cu    -0.003903      0.002915     -0.074319 
 O2  O    -0.093126      0.096734     -0.059664 
 C3  C    -0.126075      0.115904      0.000589 
 O4  O    -0.106713      0.078921      0.057391 
 O5  O     0.094201      0.088356     -0.067674 
 C6  C     0.114518      0.121984     -0.008717 
 O7  O     0.077822      0.104060      0.049806 
 O8  O    -0.102457     -0.081555     -0.059942 
 C9  C    -0.117170     -0.115991     -0.000711 
 O10  O    -0.076482     -0.098055      0.055862 
 O11  O     0.086875     -0.090804     -0.069769 
 C12  C     0.121817     -0.109357     -0.011317 
 O13  O     0.105481     -0.071236      0.046987 
 Cu14  Cu     0.498805     -0.493802      0.080561 
 Cu15  Cu     0.495200     -0.495723     -0.055718 
 O16  O     0.381547     -0.433537     -0.040049 
 C17  C     0.361604     -0.395939      0.017783 
 O18  O     0.397763     -0.410506      0.076579 
 O19  O    -0.440240     -0.385959     -0.047530 
 C20  C    -0.399975     -0.365792      0.008744 
 O21  O    -0.412854     -0.400330      0.068131 
 O22  O     0.429052      0.396178     -0.044345 
 C23  C     0.392845      0.376947      0.014118 
 O24  O     0.411410      0.411342      0.073123 
 O25  O    -0.390430      0.440444     -0.052711 
 C26  C    -0.369315      0.404253      0.004074 
 O27  O    -0.402226      0.422464      0.064525 
 C28  C    -0.190691      0.243222     -0.054698 
 C29  C    -0.190075      0.189950      0.003527 
 C30  C    -0.246767      0.207293      0.061298 
 C31  C    -0.303971      0.277818      0.059067 
 C32  C    -0.304236      0.331259      0.001104 
 C33  C    -0.247162      0.314448     -0.056380 
 O34  O    -0.245467      0.155832      0.118755 
 C35  C    -0.304441      0.174874      0.176813 
 C36  C    -0.277800      0.120669      0.238273 
 C37  C    -0.337017      0.132582      0.303670 
 C38  C    -0.304926      0.081194      0.366305 
 O39  O    -0.247535      0.368078     -0.112404 
 C40  C    -0.196724      0.344808     -0.173925 
 C41  C    -0.215659      0.409083     -0.230447 
 C42  C    -0.173639      0.385863     -0.301894 
 C43  C    -0.197298      0.448532     -0.359569 
 H44  H    -0.350514      0.290700      0.102311 
 H45  H    -0.145369      0.229848     -0.098641 
 H46  H    -0.125297      0.344616     -0.161310 
 H47  H    -0.215902      0.280460     -0.191664 
 H48  H    -0.299179      0.242472      0.192111 
 H49  H    -0.373431      0.161575      0.160924 
 H50  H    -0.287989      0.415846     -0.236532 
 H51  H    -0.191086      0.471593     -0.213048 
 H52  H    -0.276869      0.053323      0.222060 
 H53  H    -0.209338      0.137226      0.252460 
 H54  H    -0.339424      0.200455      0.318655 
 H55  H    -0.405449      0.113951      0.290624 
 H56  H    -0.100913      0.382624     -0.296617 
 H57  H    -0.195271      0.321733     -0.317972 
 H58  H    -0.171393      0.426511     -0.410756 
 H59  H    -0.269675      0.455320     -0.364715 
 H60  H    -0.169833     -0.487940     -0.349052 
 H61  H    -0.343758      0.096341      0.413991 
 H62  H    -0.310065      0.012419      0.356580 
 H63  H    -0.235023      0.095045      0.377939 
 N64  N     0.010821     -0.004975      0.311640 
 C65  C     0.030069     -0.090544      0.282112 
 C66  C    -0.077390      0.021362      0.286367 
 C67  C     0.078263      0.054930      0.284360 
 C68  C    -0.079056      0.021385      0.204517 
 H69  H    -0.128631     -0.021670      0.307362 
 H70  H    -0.092478      0.085219      0.307703 
 C71  C     0.031113     -0.088811      0.200239 
 H72  H     0.094554     -0.112680      0.301836 
 H73  H    -0.020669     -0.135324      0.301461 
 C74  C     0.075617      0.057427      0.202496 
 H75  H     0.065740      0.118831      0.307071 
 H76  H     0.144561      0.035025      0.302294 
 H77  H     0.097568     -0.106268      0.179831 
 H78  H    -0.016133     -0.135538      0.178463 
 H79  H    -0.129896     -0.022863      0.184303 
 H80  H    -0.096437      0.085076      0.185729 
 H81  H     0.141322      0.041639      0.179412 
 N82  N     0.008626     -0.003014      0.175002 
 H83  H     0.058677      0.121954      0.185114 
 C84  C     0.307652      0.270421     -0.054625 
 C85  C     0.321810      0.309574      0.010808 
 C86  C     0.269069      0.287562      0.069068 
 C87  C     0.201878      0.226547      0.060278 
 C88  C     0.187383      0.187608     -0.005249 
 C89  C     0.240622      0.209173     -0.063370 
 O90  O     0.284641      0.325665      0.132979 
 C91  C     0.219375      0.317516      0.187935 
 C92  C     0.249320      0.369571      0.251023 
 C93  C     0.182434      0.370043      0.312429 
 C94  C     0.215066      0.422633      0.375283 
 O95  O     0.226194      0.170357     -0.127156 
 C96  C     0.290066      0.182931     -0.182497 
 C97  C     0.264825      0.127604     -0.245006 
 C98  C     0.332240      0.131339     -0.305897 
 C99  C     0.304445      0.076373     -0.368845 
 H100  H     0.160736      0.208901      0.105198 
 H101  H     0.348817      0.288446     -0.099467 
 H102  H     0.290690      0.250397     -0.197272 
 H103  H     0.356584      0.165286     -0.163824 
 H104  H     0.155183      0.341272      0.168995 
 H105  H     0.212108      0.250239      0.202189 
 H106  H     0.258474      0.061274     -0.228026 
 H107  H     0.198962      0.147069     -0.263817 
 H108  H     0.313342      0.344523      0.269221 
 H109  H     0.261333      0.435451      0.234759 
 H110  H     0.118232      0.395485      0.294892 
 H111  H     0.169792      0.304315      0.329002 
 H112  H     0.340288      0.197656     -0.322613 
 H113  H     0.397931      0.110422     -0.287703 
 H114  H     0.354231      0.078545     -0.411347 
 H115  H     0.295539      0.009740     -0.354205 
 H116  H     0.240848      0.098052     -0.389963 
 H117  H     0.166974      0.422001      0.419066 
 H118  H     0.278327      0.397764      0.394543 
 H119  H     0.226663      0.489081      0.361172 
 C120  C     0.187587     -0.223809      0.058027 
 C121  C     0.183464     -0.184614     -0.007396 
 C122  C     0.234588     -0.216231     -0.064259 
 C123  C     0.288204     -0.288023     -0.053335 
 C124  C     0.294197     -0.325615      0.012511 
 C125  C     0.241925     -0.295109      0.068957 
 O126  O     0.234434     -0.176654     -0.128315 
 C127  C     0.291534     -0.212259     -0.182459 
 C128  C     0.301799     -0.156178     -0.246267 
 C129  C     0.369690     -0.194185     -0.299189 
 C130  C     0.387808     -0.139571     -0.363583 
 O131  O     0.243440     -0.335205      0.132656 
 C132  C     0.182587     -0.304403      0.185983 
 C133  C     0.182283     -0.358472      0.251433 
 C134  C     0.118184     -0.322379      0.308060 
 C135  C     0.112981     -0.374591      0.375103 
 H136  H     0.328905     -0.314304     -0.096155 
 H137  H     0.146408     -0.198620      0.100948 
 H138  H     0.201442     -0.238742      0.199946 
 H139  H     0.115051     -0.303563      0.164116 
 H140  H     0.358213     -0.222336     -0.160777 
 H141  H     0.264122     -0.274544     -0.198244 
 H142  H     0.162905     -0.424085      0.237563 
 H143  H     0.249960     -0.362323      0.272775 
 H144  H     0.237101     -0.147996     -0.271922 
 H145  H     0.323732     -0.092285     -0.229484 
 H146  H     0.433076     -0.205600     -0.272440 
 H147  H     0.346318     -0.257119     -0.316911 
 H148  H     0.138472     -0.257146      0.322094 
 H149  H     0.051006     -0.316989      0.286028 
 H150  H     0.067419     -0.344811      0.413752 
 H151  H     0.088568     -0.439159      0.364131 
 H152  H     0.178345     -0.379644      0.400020 
 H153  H     0.434658     -0.171745     -0.399907 
 H154  H     0.326504     -0.127478     -0.392772 
 H155  H     0.417169     -0.078045     -0.348692 
 N156  N    -0.487273      0.497957      0.330499 
 C157  C    -0.493667      0.410640      0.301113 
 C158  C     0.435826     -0.452304      0.305750 
 C159  C    -0.405131     -0.462982      0.302118 
 C160  C     0.434621     -0.449821      0.223983 
 H161  H     0.374026     -0.480924      0.326087 
 H162  H     0.439371     -0.387186      0.327811 
 C163  C    -0.496366      0.412170      0.219168 
 H164  H    -0.436469      0.373115      0.319188 
 H165  H     0.446130      0.379999      0.322307 
 C166  C    -0.406563     -0.462318      0.220066 
 H167  H    -0.399684     -0.397542      0.323084 
 H168  H    -0.346872     -0.498232      0.321148 
 H169  H    -0.441129      0.374461      0.196197 
 H170  H     0.441673      0.383057      0.200001 
 H171  H     0.371469     -0.475324      0.203692 
 H172  H     0.439573     -0.383594      0.206101 
 H173  H    -0.349921     -0.498615      0.197621 
 N174  N    -0.490427     -0.499548      0.193608 
 H175  H    -0.400112     -0.396730      0.201037 
 C176  C    -0.259849     -0.304356      0.054079 
 C177  C    -0.328523     -0.299056      0.005220 
 C178  C    -0.328707     -0.234959     -0.045531 
 C179  C    -0.258634     -0.175860     -0.046345 
 C180  C    -0.189781     -0.181541      0.002344 
 C181  C    -0.189187     -0.246264      0.052409 
 O182  O    -0.398508     -0.234022     -0.091510 
 C183  C    -0.406977     -0.171980     -0.145716 
 C184  C    -0.478166     -0.106743     -0.125069 
 C185  C    -0.457767     -0.052078     -0.059742 
 C186  C     0.466070      0.009015     -0.039756 
 O187  O    -0.120910     -0.248509      0.099585 
 C188  C    -0.090985     -0.328007      0.127140 
 C189  C    -0.037362     -0.376215      0.071001 
 C190  C     0.003701     -0.459485      0.096799 
 C191  C     0.063115      0.495993      0.041505 
 H192  H    -0.257807     -0.124036     -0.083776 
 H193  H    -0.261223     -0.354328      0.093160 
 H194  H    -0.048918     -0.312488      0.172494 
 H195  H    -0.146859     -0.366014      0.147181 
 H196  H    -0.343435     -0.141318     -0.158899 
 H197  H    -0.427337     -0.207164     -0.193285 
 H198  H    -0.080304     -0.390779      0.025953 
 H199  H     0.015951     -0.334759      0.050980 
 H200  H    -0.489824     -0.064664     -0.169740 
 H201  H     0.458695     -0.140250     -0.115724 
 H202  H    -0.444817     -0.093902     -0.015228 
 H203  H    -0.396132     -0.015807     -0.068597 
 H204  H     0.042888     -0.446617      0.144251 
 H205  H    -0.050118      0.497213      0.112633 
 H206  H     0.091400      0.436816      0.061697 
 H207  H     0.025520      0.479565     -0.005971 
 H208  H     0.119073     -0.463277      0.025764 
 H209  H     0.482745      0.047806      0.006736 
 H210  H     0.451194      0.052585     -0.082603 
 H211  H     0.404561     -0.025859     -0.027653 
 Cu212  Cu     0.004045      0.002101     -0.439347 
 Cu213  Cu     0.010629      0.001688      0.424315 
 O214  O    -0.074060      0.098553      0.434790 
 C215  C    -0.112338      0.116628      0.493021 
 O216  O    -0.099595      0.078347     -0.449418 
 O217  O     0.109291      0.084733      0.439263 
 C218  C     0.120852      0.121571      0.498518 
 O219  O     0.081233      0.102820     -0.444446 
 O220  O    -0.090187     -0.081982      0.429364 
 C221  C    -0.110463     -0.115500      0.487824 
 O222  O    -0.074670     -0.096686     -0.453619 
 O223  O     0.098472     -0.091753      0.431618 
 C224  C     0.129584     -0.111164      0.491167 
 O225  O     0.107810     -0.076411     -0.450219 
 Cu226  Cu    -0.498484     -0.497610     -0.418792 
 Cu227  Cu    -0.490964     -0.499750      0.444890 
 O228  O     0.402849     -0.424252      0.454411 
 C229  C     0.379482     -0.388863     -0.487663 
 O230  O     0.411027     -0.405856     -0.427693 
 O231  O    -0.415437     -0.398280      0.456290 
 C232  C    -0.379892     -0.378384     -0.485290 
 O233  O    -0.399291     -0.412014     -0.426712 
 O234  O     0.433673      0.398131      0.453266 
 C235  C     0.393377      0.379962     -0.489812 
 O236  O     0.404348      0.417466     -0.430725 
 O237  O    -0.385096      0.426645      0.455547 
 C238  C    -0.372162      0.388743     -0.486714 
 O239  O    -0.411202      0.406740     -0.428727 
 C240  C    -0.236815      0.189677     -0.446321 
 C241  C    -0.178499      0.188245      0.496021 
 C242  C    -0.183040      0.251221      0.444663 
 C243  C    -0.247023      0.315791      0.452681 
 C244  C    -0.305177      0.317587     -0.489330 
 C245  C    -0.300150      0.254683     -0.437729 
 O246  O    -0.124628      0.248535      0.388734 
 C247  C    -0.136960      0.306692      0.332265 
 C248  C    -0.076194      0.281214      0.271109 
 C249  C    -0.092507      0.332987      0.204692 
 C250  C    -0.045926      0.295877      0.139111 
 O251  O    -0.356461      0.256893     -0.380400 
 C252  C    -0.347129      0.192773     -0.327773 
 C253  C    -0.399483      0.219008     -0.262327 
 C254  C    -0.388553      0.158181     -0.200657 
 C255  C    -0.430739      0.192428     -0.132251 
 H256  H    -0.250928      0.365842      0.413790 
 H257  H    -0.233137      0.138560     -0.408323 
 H258  H    -0.371279      0.131616     -0.349175 
 H259  H    -0.276529      0.185741     -0.313989 
 H260  H    -0.206953      0.304600      0.315667 
 H261  H    -0.121714      0.371699      0.350815 
 H262  H    -0.376225      0.282237     -0.245498 
 H263  H    -0.470535      0.225567     -0.274877 
 H264  H    -0.006131      0.287375      0.286802 
 H265  H    -0.086166      0.213547      0.258495 
 H266  H    -0.164466      0.336419      0.194791 
 H267  H    -0.070362      0.398910      0.213744 
 H268  H    -0.417934      0.096046     -0.214246 
 H269  H    -0.317261      0.146488     -0.191976 
 H270  H    -0.419097      0.149146     -0.088565 
 H271  H    -0.402627      0.254392     -0.117118 
 H272  H     0.497124      0.201038     -0.137107 
 H273  H    -0.059810      0.333915      0.092562 
 H274  H     0.026435      0.293385      0.145338 
 H275  H    -0.068487      0.230749      0.127662 
 N276  N    -0.004753      0.007366     -0.188025 
 C277  C     0.073663     -0.039196     -0.216320 
 C278  C    -0.085565     -0.033767     -0.216368 
 C279  C    -0.001893      0.095611     -0.213941 
 C280  C    -0.082966     -0.035030     -0.298464 
 H281  H    -0.090347     -0.099034     -0.196331 
 H282  H    -0.144644      0.000945     -0.196333 
 C283  C     0.076428     -0.036389     -0.298142 
 H284  H     0.134626     -0.011713     -0.193735 
 H285  H     0.070276     -0.105725     -0.199046 
 C286  C    -0.002514      0.096346     -0.295943 
 H287  H    -0.059210      0.131429     -0.192158 
 H288  H     0.058356      0.127152     -0.193873 
 H289  H     0.136965     -0.003832     -0.316684 
 H290  H     0.078514     -0.101486     -0.320431 
 H291  H    -0.082640     -0.101156     -0.318461 
 H292  H    -0.142618     -0.004217     -0.319842 
 H293  H     0.055973      0.130628     -0.316258 
 N294  N    -0.002377      0.008574     -0.325037 
 H295  H    -0.061662      0.130079     -0.315122 
 C296  C     0.259550      0.185835      0.453081 
 C297  C     0.188736      0.191182     -0.498947 
 C298  C     0.183982      0.257547     -0.448919 
 C299  C     0.254119      0.315950     -0.444481 
 C300  C     0.325020      0.310642     -0.492473 
 C301  C     0.329376      0.244739      0.456988 
 O302  O     0.111923      0.263428     -0.404557 
 C303  C     0.072973      0.346157     -0.394184 
 C304  C     0.023381      0.372346     -0.459908 
 C305  C     0.006047      0.468559     -0.463213 
 C306  C    -0.051591      0.493910      0.474507 
 O307  O     0.401809      0.240544      0.412781 
 C308  C     0.425037      0.160741      0.380021 
 C309  C     0.457144      0.098948      0.435388 
 C310  C     0.473138      0.008253      0.406954 
 C311  C    -0.489481     -0.052139      0.461827 
 H312  H     0.252702      0.366520     -0.404596 
 H313  H     0.261169      0.133963      0.414315 
 H314  H     0.369027      0.135273      0.349480 
 H315  H     0.478644      0.174177      0.342120 
 H316  H     0.026883      0.341954     -0.349167 
 H317  H     0.123828      0.393207     -0.379699 
 H318  H    -0.481449      0.123956      0.459032 
 H319  H     0.408262      0.095810      0.478644 
 H320  H     0.061016      0.352496      0.492702 
 H321  H    -0.040188      0.337621     -0.462314 
 H322  H    -0.025678      0.490721     -0.413940 
 H323  H     0.070313     -0.498029     -0.466519 
 H324  H     0.409582     -0.017105      0.387784 
 H325  H    -0.481699      0.009751      0.361182 
 H326  H    -0.479558     -0.116466      0.439748 
 H327  H    -0.424905     -0.029913      0.481488 
 H328  H     0.464963     -0.057337     -0.492959 
 H329  H    -0.062016     -0.436919      0.473695 
 H330  H    -0.020255      0.474688      0.424378 
 H331  H    -0.117499      0.463849      0.476978 
 C332  C     0.317833     -0.266741      0.448725 
 C333  C     0.311940     -0.319009     -0.492549 
 C334  C     0.245716     -0.305727     -0.440940 
 C335  C     0.187846     -0.236267     -0.447405 
 C336  C     0.194311     -0.183558      0.494269 
 C337  C     0.258460     -0.198585      0.441366 
 O338  O     0.239206     -0.361228     -0.386229 
 C339  C     0.161294     -0.357640     -0.341914 
 C340  C     0.166242     -0.428867     -0.288978 
 C341  C     0.082519     -0.436052     -0.242428 
 C342  C     0.088167      0.492319     -0.188923 
 O343  O     0.261755     -0.144940      0.385254 
 C344  C     0.322571     -0.162982      0.328321 
 C345  C     0.305648     -0.099481      0.270418 
 C346  C     0.366858     -0.111947      0.205979 
 C347  C     0.345646     -0.051436      0.146048 
 H348  H     0.136716     -0.223249     -0.407517 
 H349  H     0.369919     -0.278469      0.409398 
 H350  H     0.391437     -0.157994      0.347202 
 H351  H     0.312021     -0.228411      0.308800 
 H352  H     0.158252     -0.295572     -0.314384 
 H353  H     0.101598     -0.364436     -0.374674 
 H354  H     0.236016     -0.104777      0.253726 
 H355  H     0.313326     -0.034229      0.291284 
 H356  H     0.177895     -0.489720     -0.316932 
 H357  H     0.224321     -0.418494     -0.255212 
 H358  H     0.071178     -0.375186     -0.214353 
 H359  H     0.023965     -0.446322     -0.275800 
 H360  H     0.436523     -0.102948      0.221789 
 H361  H     0.361916     -0.178070      0.186485 
 H362  H     0.390915     -0.062496      0.101151 
 H363  H     0.277417     -0.060554      0.127052 
 H364  H     0.352495      0.015474      0.162568 
 H365  H     0.027131      0.489192     -0.156755 
 H366  H     0.097234      0.430018     -0.214959 
 H367  H     0.144163     -0.497906     -0.152991 
 N368  N     0.489596     -0.496868     -0.169156 
 C369  C    -0.490939      0.417179     -0.197780 
 C370  C     0.402317     -0.470080     -0.196329 
 C371  C    -0.442127     -0.437506     -0.195730 
 C372  C     0.403520     -0.470535     -0.278331 
 H373  H     0.350214      0.487253     -0.175955 
 H374  H     0.386977     -0.405818     -0.175811 
 C375  C    -0.488547      0.417666     -0.279730 
 H376  H    -0.426875      0.395284     -0.177046 
 H377  H     0.457935      0.372648     -0.178773 
 C378  C    -0.440898     -0.437189     -0.277555 
 H379  H    -0.456607     -0.373082     -0.175054 
 H380  H    -0.376533     -0.456004     -0.175393 
 H381  H    -0.422440      0.398065     -0.299535 
 H382  H     0.462979      0.372090     -0.301602 
 H383  H     0.352875      0.485614     -0.299467 
 H384  H     0.387495     -0.406784     -0.297815 
 H385  H    -0.374662     -0.455893     -0.297868 
 N386  N     0.491883     -0.496548     -0.305944 
 H387  H    -0.454465     -0.372769     -0.296951 
 C388  C    -0.194668     -0.219243     -0.442721 
 C389  C    -0.181594     -0.182690      0.491444 
 C390  C    -0.233691     -0.209036      0.434363 
 C391  C    -0.297162     -0.273154      0.445075 
 C392  C    -0.310053     -0.309906     -0.489045 
 C393  C    -0.258619     -0.282778     -0.431763 
 O394  O    -0.222787     -0.172420      0.369830 
 C395  C    -0.284226     -0.196108      0.315588 
 C396  C    -0.271122     -0.141120      0.251582 
 C397  C    -0.339503     -0.159963      0.194021 
 C398  C    -0.337161     -0.096282      0.133980 
 O399  O    -0.270011     -0.317667     -0.366570 
 C400  C    -0.211643     -0.288977     -0.311710 
 C401  C    -0.227312     -0.337672     -0.244639 
 C402  C    -0.161611     -0.312623     -0.186632 
 C403  C    -0.165424     -0.370604     -0.122830 
 H404  H    -0.337413     -0.294962      0.401092 
 H405  H    -0.153865     -0.197601     -0.398989 
 H406  H    -0.142192     -0.298572     -0.329340 
 H407  H    -0.223028     -0.220578     -0.301763 
 H408  H    -0.273772     -0.263566      0.301240 
 H409  H    -0.352742     -0.187882      0.335842 
 H410  H    -0.295750     -0.326615     -0.225426 
 H411  H    -0.221694     -0.406120     -0.256164 
 H412  H    -0.276249     -0.073924      0.267703 
 H413  H    -0.203447     -0.150278      0.229967 
 H414  H    -0.327901     -0.224508      0.172707 
 H415  H    -0.406899     -0.160587      0.217196 
 H416  H    -0.093295     -0.312884     -0.208071 
 H417  H    -0.175123     -0.246648     -0.169501 
 H418  H    -0.122376     -0.346046     -0.080966 
 H419  H    -0.233323     -0.375242     -0.101332 
 H420  H    -0.142811     -0.435345     -0.135978 
 H421  H    -0.382562     -0.115917      0.091968 
 H422  H    -0.357660     -0.032460      0.151882 
 H423  H    -0.270135     -0.091059      0.110866 
loop_  
_geom_bond_atom_site_label_1  
_geom_bond_atom_site_label_2  
Cu0   Cu1 
Cu0   O4 
Cu0   O7 
Cu0   O10 
Cu0   O13 
Cu0   N82 
Cu1   O2 
Cu1   O5 
Cu1   O8 
Cu1   O11 
Cu1   N276 
O2   C3 
C3   O4 
C3   C29 
O5   C6 
C6   O7 
C6   C88 
O8   C9 
C9   O10 
C9   C180 
O11   C12 
C12   O13 
C12   C121 
Cu14   Cu15 
Cu14   O18 
Cu14   O21 
Cu14   O24 
Cu14   O27 
Cu14   N174 
Cu15   O16 
Cu15   O19 
Cu15   O22 
Cu15   O25 
Cu15   N368 
O16   C17 
C17   O18 
C17   C124 
O19   C20 
C20   O21 
C20   C177 
O22   C23 
C23   O24 
C23   C85 
O25   C26 
C26   O27 
C26   C32 
C28   C29 
C28   C33 
C28   H45 
C29   C30 
C30   C31 
C30   O34 
C31   C32 
C31   H44 
C32   C33 
C33   O39 
O34   C35 
C35   C36 
C35   H48 
C35   H49 
C36   C37 
C36   H52 
C36   H53 
C37   C38 
C37   H54 
C37   H55 
C38   H61 
C38   H62 
C38   H63 
O39   C40 
C40   C41 
C40   H46 
C40   H47 
C41   C42 
C41   H50 
C41   H51 
C42   C43 
C42   H56 
C42   H57 
C43   H58 
C43   H59 
C43   H60 
N64   C65 
N64   C66 
N64   C67 
N64   Cu213 
C65   C71 
C65   H72 
C65   H73 
C66   C68 
C66   H69 
C66   H70 
C67   C74 
C67   H75 
C67   H76 
C68   H79 
C68   H80 
C68   N82 
C71   H77 
C71   H78 
C71   N82 
C74   H81 
C74   N82 
C74   H83 
C84   C85 
C84   C89 
C84   H101 
C85   C86 
C86   C87 
C86   O90 
C87   C88 
C87   H100 
C88   C89 
C89   O95 
O90   C91 
C91   C92 
C91   H104 
C91   H105 
C92   C93 
C92   H108 
C92   H109 
C93   C94 
C93   H110 
C93   H111 
C94   H117 
C94   H118 
C94   H119 
O95   C96 
C96   C97 
C96   H102 
C96   H103 
C97   C98 
C97   H106 
C97   H107 
C98   C99 
C98   H112 
C98   H113 
C99   H114 
C99   H115 
C99   H116 
C120   C121 
C120   C125 
C120   H137 
C121   C122 
C122   C123 
C122   O126 
C123   C124 
C123   H136 
C124   C125 
C125   O131 
O126   C127 
C127   C128 
C127   H140 
C127   H141 
C128   C129 
C128   H144 
C128   H145 
C129   C130 
C129   H146 
C129   H147 
C130   H153 
C130   H154 
C130   H155 
O131   C132 
C132   C133 
C132   H138 
C132   H139 
C133   C134 
C133   H142 
C133   H143 
C134   C135 
C134   H148 
C134   H149 
C135   H150 
C135   H151 
C135   H152 
N156   C157 
N156   C158 
N156   C159 
N156   Cu227 
C157   C163 
C157   H164 
C157   H165 
C158   C160 
C158   H161 
C158   H162 
C159   C166 
C159   H167 
C159   H168 
C160   H171 
C160   H172 
C160   N174 
C163   H169 
C163   H170 
C163   N174 
C166   H173 
C166   N174 
C166   H175 
C176   C177 
C176   C181 
C176   H193 
C177   C178 
C178   C179 
C178   O182 
C179   C180 
C179   H192 
C180   C181 
C181   O187 
O182   C183 
C183   C184 
C183   H196 
C183   H197 
C184   C185 
C184   H200 
C184   H201 
C185   C186 
C185   H202 
C185   H203 
C186   H209 
C186   H210 
C186   H211 
O187   C188 
C188   C189 
C188   H194 
C188   H195 
C189   C190 
C189   H198 
C189   H199 
C190   C191 
C190   H204 
C190   H205 
C191   H206 
C191   H207 
C191   H208 
Cu212   Cu213 
Cu212   O216 
Cu212   O219 
Cu212   O222 
Cu212   O225 
Cu212   N294 
Cu213   O214 
Cu213   O217 
Cu213   O220 
Cu213   O223 
O214   C215 
C215   O216 
C215   C241 
O217   C218 
C218   O219 
C218   C297 
O220   C221 
C221   O222 
C221   C389 
O223   C224 
C224   O225 
C224   C336 
Cu226   Cu227 
Cu226   O230 
Cu226   O233 
Cu226   O236 
Cu226   O239 
Cu226   N386 
Cu227   O228 
Cu227   O231 
Cu227   O234 
Cu227   O237 
O228   C229 
C229   O230 
C229   C333 
O231   C232 
C232   O233 
C232   C392 
O234   C235 
C235   O236 
C235   C300 
O237   C238 
C238   O239 
C238   C244 
C240   C241 
C240   C245 
C240   H257 
C241   C242 
C242   C243 
C242   O246 
C243   C244 
C243   H256 
C244   C245 
C245   O251 
O246   C247 
C247   C248 
C247   H260 
C247   H261 
C248   C249 
C248   H264 
C248   H265 
C249   C250 
C249   H266 
C249   H267 
C250   H273 
C250   H274 
C250   H275 
O251   C252 
C252   C253 
C252   H258 
C252   H259 
C253   C254 
C253   H262 
C253   H263 
C254   C255 
C254   H268 
C254   H269 
C255   H270 
C255   H271 
C255   H272 
N276   C277 
N276   C278 
N276   C279 
C277   C283 
C277   H284 
C277   H285 
C278   C280 
C278   H281 
C278   H282 
C279   C286 
C279   H287 
C279   H288 
C280   H291 
C280   H292 
C280   N294 
C283   H289 
C283   H290 
C283   N294 
C286   H293 
C286   N294 
C286   H295 
C296   C297 
C296   C301 
C296   H313 
C297   C298 
C298   C299 
C298   O302 
C299   C300 
C299   H312 
C300   C301 
C301   O307 
O302   C303 
C303   C304 
C303   H316 
C303   H317 
C304   C305 
C304   H320 
C304   H321 
C305   C306 
C305   H322 
C305   H323 
C306   H329 
C306   H330 
C306   H331 
O307   C308 
C308   C309 
C308   H314 
C308   H315 
C309   C310 
C309   H318 
C309   H319 
C310   C311 
C310   H324 
C310   H325 
C311   H326 
C311   H327 
C311   H328 
C332   C333 
C332   C337 
C332   H349 
C333   C334 
C334   C335 
C334   O338 
C335   C336 
C335   H348 
C336   C337 
C337   O343 
O338   C339 
C339   C340 
C339   H352 
C339   H353 
C340   C341 
C340   H356 
C340   H357 
C341   C342 
C341   H358 
C341   H359 
C342   H365 
C342   H366 
C342   H367 
O343   C344 
C344   C345 
C344   H350 
C344   H351 
C345   C346 
C345   H354 
C345   H355 
C346   C347 
C346   H360 
C346   H361 
C347   H362 
C347   H363 
C347   H364 
N368   C369 
N368   C370 
N368   C371 
C369   C375 
C369   H376 
C369   H377 
C370   C372 
C370   H373 
C370   H374 
C371   C378 
C371   H379 
C371   H380 
C372   H383 
C372   H384 
C372   N386 
C375   H381 
C375   H382 
C375   N386 
C378   H385 
C378   N386 
C378   H387 
C388   C389 
C388   C393 
C388   H405 
C389   C390 
C390   C391 
C390   O394 
C391   C392 
C391   H404 
C392   C393 
C393   O399 
O394   C395 
C395   C396 
C395   H408 
C395   H409 
C396   C397 
C396   H412 
C396   H413 
C397   C398 
C397   H414 
C397   H415 
C398   H421 
C398   H422 
C398   H423 
O399   C400 
C400   C401 
C400   H406 
C400   H407 
C401   C402 
C401   H410 
C401   H411 
C402   C403 
C402   H416 
C402   H417 
C403   H418 
C403   H419 
C403   H420 
  
#END  
