data_
_symmetry_cell_setting           triclinic 
_symmetry_space_group_name_H-M   'P 1' 
_symmetry_Int_Tables_number      1 
loop_ 
_symmetry_equiv_pos_site_id 
_symmetry_equiv_pos_as_xyz 
1 x,y,z 
_cell_length_a             18.646219        
_cell_length_b             10.528184        
_cell_length_c             19.105151        
_cell_angle_alpha          90.671201        
_cell_angle_beta           89.344477        
_cell_angle_gamma          90.288429        
loop_  
_atom_site_label   
_atom_site_type_symbol  
_atom_site_fract_x  
_atom_site_fract_y  
_atom_site_fract_z 
 Cu0  Cu     0.001358     -0.013319      0.070828 
 Cu1  Cu     0.000686      0.015977     -0.069577 
 O2  O    -0.078197      0.135626     -0.045884 
 C3  C    -0.104291      0.155617      0.016283 
 O4  O    -0.074792      0.125067      0.072242 
 O5  O     0.079861      0.144723     -0.060835 
 C6  C     0.107660      0.166366      0.000075 
 O7  O     0.082901      0.132288      0.060355 
 O8  O    -0.070497     -0.127594     -0.073901 
 C9  C    -0.103269     -0.154999     -0.015383 
 O10  O    -0.075194     -0.138233      0.045449 
 O11  O     0.076038     -0.113883     -0.059673 
 C12  C     0.103165     -0.148960     -0.000689 
 O13  O     0.075449     -0.129100      0.059483 
 Cu14  Cu    -0.497805     -0.475571      0.078018 
 Cu15  Cu    -0.486868     -0.484346     -0.058793 
 O16  O     0.426773     -0.359794     -0.043497 
 C17  C     0.393706     -0.331792      0.010344 
 O18  O     0.419083     -0.350957      0.071995 
 O19  O    -0.426262     -0.339777     -0.059652 
 C20  C    -0.400152     -0.305096      0.000220 
 O21  O    -0.426904     -0.334516      0.060335 
 O22  O     0.433444      0.379464     -0.047041 
 C23  C     0.399147      0.353134      0.010467 
 O24  O     0.421116      0.390034      0.070566 
 O25  O    -0.411194      0.385958     -0.051370 
 C26  C    -0.385935      0.364015      0.008795 
 O27  O    -0.417925      0.395586      0.067108 
 C28  C    -0.259532      0.372555      0.054540 
 C29  C    -0.310353      0.312735      0.012276 
 C30  C    -0.293596      0.208091     -0.033922 
 C31  C    -0.223227      0.168182     -0.030870 
 C32  C    -0.177186      0.208558      0.021445 
 C33  C    -0.195520      0.307402      0.067208 
 O34  O    -0.347198      0.152673     -0.071278 
 C35  C    -0.328781      0.043951     -0.113173 
 C36  C    -0.318196      0.071382     -0.191084 
 C37  C    -0.250903      0.158825     -0.209464 
 C38  C    -0.237445      0.183309     -0.286547 
 O39  O    -0.148187      0.340047      0.117289 
 C40  C    -0.165926      0.399941      0.183802 
 C41  C    -0.163281      0.294701      0.237328 
 C42  C    -0.224467      0.200094      0.234914 
 C43  C    -0.297298      0.265220      0.248498 
 H44  H    -0.200417      0.098754     -0.068399 
 H45  H    -0.271035      0.453111      0.084983 
 H46  H    -0.131538      0.472329      0.200831 
 H47  H    -0.218449      0.445859      0.177353 
 H48  H    -0.280105     -0.000994     -0.092155 
 H49  H    -0.375615     -0.019117     -0.098395 
 H50  H    -0.112886      0.244632      0.237209 
 H51  H    -0.168057      0.348154      0.287149 
 H52  H    -0.309491     -0.018366     -0.214725 
 H53  H    -0.367550      0.113149     -0.210835 
 H54  H    -0.248558      0.250139     -0.181949 
 H55  H    -0.206655      0.103728     -0.187420 
 H56  H    -0.229082      0.140002      0.186286 
 H57  H    -0.216360      0.132167      0.276711 
 H58  H    -0.315986      0.335866      0.209626 
 H59  H    -0.339612      0.199064      0.258965 
 H60  H    -0.293015      0.329036      0.295269 
 H61  H    -0.284243      0.227131     -0.311146 
 H62  H    -0.192417      0.248135     -0.295970 
 H63  H    -0.229596      0.095406     -0.318182 
 N64  N    -0.000626      0.021322      0.314880 
 C65  C     0.059967     -0.064652      0.284013 
 C66  C    -0.071916     -0.022053      0.289501 
 C67  C     0.012574      0.150070      0.288595 
 C68  C    -0.068177     -0.028263      0.209209 
 H69  H    -0.089206     -0.113673      0.316298 
 H70  H    -0.109453      0.049450      0.310086 
 C71  C     0.056891     -0.070211      0.203140 
 H72  H     0.109179     -0.019323      0.300974 
 H73  H     0.058530     -0.156421      0.303868 
 C74  C     0.012544      0.143343      0.208981 
 H75  H    -0.028333      0.212199      0.305724 
 H76  H     0.064619      0.197552      0.306287 
 H77  H     0.109978     -0.057874      0.179584 
 H78  H     0.039592     -0.170375      0.183106 
 H79  H    -0.070764     -0.135675      0.196072 
 H80  H    -0.112482      0.019345      0.179220 
 H81  H     0.069283      0.170350      0.191860 
 N82  N     0.000745      0.018615      0.181548 
 H83  H    -0.022824      0.206915      0.187707 
 C84  C     0.226987      0.163710      0.053175 
 C85  C     0.182838      0.217398      0.000815 
 C86  C     0.210692      0.297701     -0.047025 
 C87  C     0.282848      0.340069     -0.044512 
 C88  C     0.327850      0.293636      0.005074 
 C89  C     0.301130      0.203458      0.055501 
 O90  O     0.170923      0.345959     -0.099803 
 C91  C     0.118402      0.445803     -0.081628 
 C92  C     0.053917      0.454112     -0.127852 
 C93  C    -0.000428     -0.442860     -0.104206 
 C94  C    -0.027870     -0.455637     -0.027970 
 O95  O     0.344290      0.141460      0.103830 
 C96  C     0.414492      0.121744      0.085016 
 C97  C     0.439331     -0.011471      0.102091 
 C98  C    -0.482407     -0.029806      0.084634 
 C99  C    -0.437201      0.095251      0.069863 
 H100  H     0.301757      0.412822     -0.081094 
 H101  H     0.208537      0.090290      0.093107 
 H102  H     0.421805      0.148066      0.028206 
 H103  H     0.443414      0.196151      0.113004 
 H104  H     0.104449      0.424004     -0.030970 
 H105  H     0.149906     -0.469018     -0.086784 
 H106  H     0.424571     -0.020458      0.157917 
 H107  H     0.408529     -0.086557      0.078169 
 H108  H     0.071489      0.481957     -0.179871 
 H109  H     0.021507      0.361758     -0.133322 
 H110  H     0.029361     -0.346162     -0.111231 
 H111  H    -0.036861     -0.451996     -0.146718 
 H112  H    -0.459592     -0.075114      0.127868 
 H113  H    -0.477064     -0.087267      0.039240 
 H114  H    -0.426244      0.163125      0.115118 
 H115  H    -0.385578      0.074806      0.046751 
 H116  H    -0.468467      0.158672      0.033036 
 H117  H    -0.070950     -0.391348     -0.020505 
 H118  H    -0.051030      0.448428     -0.022186 
 H119  H     0.012745     -0.436110      0.009836 
 C120  C     0.265060     -0.357224      0.042201 
 C121  C     0.317572     -0.286996      0.006868 
 C122  C     0.299153     -0.181092     -0.033106 
 C123  C     0.226580     -0.137265     -0.038330 
 C124  C     0.178038     -0.200690      0.000943 
 C125  C     0.193891     -0.314045      0.039172 
 O126  O     0.360368     -0.125458     -0.061348 
 C127  C     0.354640     -0.009218     -0.100138 
 C128  C     0.426342      0.052092     -0.108807 
 C129  C     0.481812     -0.021602     -0.153503 
 C130  C     0.448724     -0.084203     -0.222729 
 O131  O     0.137862     -0.382547      0.066672 
 C132  C     0.150064     -0.499380      0.101700 
 C133  C     0.080509      0.427986      0.121482 
 C134  C     0.033135      0.493319      0.175898 
 C135  C    -0.021344     -0.413555      0.149546 
 H136  H     0.210950     -0.054468     -0.069252 
 H137  H     0.280604     -0.448851      0.068750 
 H138  H     0.182840      0.439558      0.065125 
 H139  H     0.187492     -0.488694      0.148455 
 H140  H     0.324619     -0.022616     -0.150262 
 H141  H     0.327290      0.046385     -0.059788 
 H142  H     0.047153      0.387572      0.079184 
 H143  H     0.107124      0.345036      0.143767 
 H144  H     0.415666      0.142160     -0.135107 
 H145  H     0.450620      0.063267     -0.056055 
 H146  H    -0.476759      0.049111     -0.167103 
 H147  H    -0.491363     -0.096805     -0.122360 
 H148  H     0.005676      0.413555      0.203905 
 H149  H     0.069284     -0.450729      0.213722 
 H150  H    -0.059573     -0.389217      0.191114 
 H151  H     0.004907     -0.333909      0.129205 
 H152  H    -0.053929     -0.467893      0.108232 
 H153  H     0.409639     -0.167004     -0.218750 
 H154  H     0.421339     -0.009752     -0.250212 
 H155  H     0.492412     -0.117872     -0.256552 
 N156  N     0.473153     -0.486502      0.332117 
 C157  C    -0.466792      0.427957      0.301975 
 C158  C     0.407544      0.464858      0.303282 
 C159  C     0.483262     -0.359780      0.302940 
 C160  C     0.416333      0.453245      0.221119 
 H161  H     0.396555      0.370561      0.329940 
 H162  H     0.366269     -0.468372      0.317116 
 C163  C    -0.461667      0.438632      0.217620 
 H164  H    -0.413200      0.463315      0.323668 
 H165  H    -0.476998      0.327041      0.319624 
 C166  C     0.489001     -0.354491      0.223139 
 H167  H     0.439343     -0.299605      0.318935 
 H168  H    -0.469888     -0.317962      0.324940 
 H169  H    -0.411650      0.486411      0.205317 
 H170  H    -0.457271      0.343835      0.192973 
 H171  H     0.424123      0.353694      0.202759 
 H172  H     0.367315      0.493033      0.198898 
 H173  H    -0.455800     -0.309657      0.212796 
 N174  N     0.480453     -0.481959      0.193613 
 H175  H     0.448721     -0.289067      0.201242 
 C176  C    -0.208202     -0.213097      0.054846 
 C177  C    -0.178951     -0.196060     -0.013509 
 C178  C    -0.217592     -0.222139     -0.075138 
 C179  C    -0.292707     -0.236893     -0.069504 
 C180  C    -0.323905     -0.251831     -0.002440 
 C181  C    -0.282073     -0.234848      0.058798 
 O182  O    -0.181801     -0.206302     -0.139329 
 C183  C    -0.217528     -0.207763     -0.205252 
 C184  C    -0.205509     -0.342204     -0.241990 
 C185  C    -0.229487     -0.461164     -0.197126 
 C186  C    -0.179278      0.494792     -0.140186 
 O187  O    -0.311016     -0.238119      0.124690 
 C188  C    -0.297088     -0.126658      0.169076 
 C189  C    -0.243094     -0.152812      0.225032 
 C190  C    -0.269446     -0.238176      0.285647 
 C191  C    -0.295529     -0.370568      0.263304 
 H192  H    -0.325784     -0.267847     -0.115210 
 H193  H    -0.168675     -0.205148      0.096427 
 H194  H    -0.277805     -0.045103      0.139661 
 H195  H    -0.347812     -0.091918      0.194507 
 H196  H    -0.273563     -0.188842     -0.190801 
 H197  H    -0.191730     -0.137235     -0.237265 
 H198  H    -0.191309     -0.202232      0.204417 
 H199  H    -0.214261     -0.071228      0.251138 
 H200  H    -0.239440     -0.335692     -0.294413 
 H201  H    -0.149814     -0.352166     -0.253541 
 H202  H    -0.281949     -0.443959     -0.170532 
 H203  H    -0.240753      0.457878     -0.236139 
 H204  H    -0.225638     -0.228258      0.323438 
 H205  H    -0.316535     -0.185459      0.302645 
 H206  H    -0.295090     -0.441392      0.305262 
 H207  H    -0.350659     -0.357939      0.246542 
 H208  H    -0.259603     -0.408148      0.222237 
 H209  H    -0.132662      0.452728     -0.169171 
 H210  H    -0.163316     -0.422254     -0.105587 
 H211  H    -0.202153      0.410961     -0.110927 
 Cu212  Cu    -0.003505      0.016712     -0.428910 
 Cu213  Cu    -0.002273      0.009832      0.437941 
 O214  O    -0.084314      0.119010      0.437009 
 C215  C    -0.107187      0.163269      0.496216 
 O216  O    -0.074060      0.149137     -0.445416 
 O217  O     0.069410      0.160697      0.436211 
 C218  C     0.099114      0.185430      0.495553 
 O219  O     0.077501      0.147291     -0.445285 
 O220  O    -0.067281     -0.146849      0.445303 
 C221  C    -0.102881     -0.151305     -0.497171 
 O222  O    -0.081784     -0.104597     -0.439532 
 O223  O     0.089346     -0.094881      0.438689 
 C224  C     0.110771     -0.131860      0.497783 
 O225  O     0.069804     -0.128002     -0.446924 
 Cu226  Cu    -0.498821      0.482276     -0.424188 
 Cu227  Cu     0.497332      0.498867      0.443052 
 O228  O     0.422333     -0.365786      0.454515 
 C229  C     0.392709     -0.361554     -0.486173 
 O230  O     0.418100     -0.399011     -0.427345 
 O231  O    -0.420296     -0.370301      0.442355 
 C232  C    -0.391146     -0.347257      0.499895 
 O233  O    -0.420756     -0.377647     -0.439249 
 O234  O     0.424455      0.370864      0.445254 
 C235  C     0.395931      0.327672     -0.499068 
 O236  O     0.427610      0.324625     -0.439699 
 O237  O    -0.427396      0.360055      0.453305 
 C238  C    -0.394954      0.342980     -0.492327 
 O239  O    -0.421242      0.371805     -0.433826 
 C240  C    -0.269013      0.356937     -0.454341 
 C241  C    -0.317648      0.304922      0.497648 
 C242  C    -0.298288      0.213273      0.448905 
 C243  C    -0.226633      0.186692      0.438408 
 C244  C    -0.177954      0.229296      0.489990 
 C245  C    -0.198071      0.315576     -0.456085 
 O246  O    -0.352164      0.156250      0.414488 
 C247  C    -0.343668      0.032470      0.386609 
 C248  C    -0.410238     -0.038908      0.396681 
 C249  C    -0.477374      0.016633      0.362456 
 C250  C    -0.481018      0.011379      0.281274 
 O251  O    -0.148507      0.346171     -0.406557 
 C252  C    -0.132717      0.477245     -0.393114 
 C253  C    -0.069237      0.490899     -0.338959 
 C254  C     0.001720      0.435954     -0.370986 
 C255  C     0.037633      0.496685     -0.435014 
 H256  H    -0.210397      0.115388      0.398928 
 H257  H    -0.284134      0.425848     -0.414535 
 H258  H    -0.116732     -0.476472     -0.442118 
 H259  H    -0.179575     -0.482416     -0.372703 
 H260  H    -0.331345      0.040159      0.328669 
 H261  H    -0.295784     -0.004651      0.410284 
 H262  H    -0.055823     -0.416126     -0.323521 
 H263  H    -0.083172      0.445145     -0.288882 
 H264  H    -0.398160     -0.133785      0.372713 
 H265  H    -0.424586     -0.056342      0.452988 
 H266  H     0.473986     -0.019770      0.382623 
 H267  H    -0.477763      0.120942      0.378468 
 H268  H     0.042799      0.441645     -0.327364 
 H269  H    -0.005115      0.334476     -0.385204 
 H270  H     0.048794     -0.405456     -0.422817 
 H271  H     0.087411      0.438189     -0.452106 
 H272  H    -0.002004      0.490165     -0.476638 
 H273  H    -0.444710      0.083260      0.257376 
 H274  H    -0.467050     -0.080229      0.256390 
 H275  H     0.464635      0.033445      0.263293 
 N276  N     0.002887      0.028563     -0.181593 
 C277  C    -0.043484      0.126910     -0.213044 
 C278  C     0.075491      0.055915     -0.210212 
 C279  C    -0.020341     -0.095094     -0.206223 
 C280  C     0.078177      0.047017     -0.291463 
 H281  H     0.090452      0.150654     -0.192639 
 H282  H     0.114986     -0.005338     -0.191854 
 C283  C    -0.045950      0.112938     -0.294730 
 H284  H    -0.097417      0.121267     -0.191079 
 H285  H    -0.022779      0.218111     -0.190267 
 C286  C    -0.014357     -0.110015     -0.288003 
 H287  H     0.016979     -0.165075     -0.185017 
 H288  H    -0.073828     -0.114967     -0.190383 
 H289  H    -0.097242      0.082277     -0.314036 
 H290  H    -0.035105      0.200772     -0.322464 
 H291  H     0.101766      0.134381     -0.311670 
 H292  H     0.116146     -0.016801     -0.309115 
 H293  H    -0.062600     -0.148322     -0.309748 
 N294  N     0.004349      0.012961     -0.319266 
 H295  H     0.027021     -0.178455     -0.306011 
 C296  C     0.275465      0.350416      0.458554 
 C297  C     0.320726      0.274556      0.498566 
 C298  C     0.292075      0.181784     -0.453959 
 C299  C     0.216787      0.157151     -0.457739 
 C300  C     0.172105      0.228612      0.497183 
 C301  C     0.198896      0.328773      0.455700 
 O302  O     0.334046      0.110182     -0.409834 
 C303  C     0.301623      0.015140     -0.370143 
 C304  C     0.268242      0.069110     -0.305184 
 C305  C     0.320340      0.162081     -0.271042 
 C306  C     0.280817      0.224160     -0.206129 
 O307  O     0.149869      0.394405      0.411687 
 C308  C     0.171282      0.489343      0.363737 
 C309  C     0.174666      0.419760      0.291007 
 C310  C     0.230297      0.310170      0.292112 
 C311  C     0.245449      0.255208      0.214494 
 H312  H     0.189779      0.082727     -0.427471 
 H313  H     0.303418      0.427169      0.429952 
 H314  H     0.128301     -0.446204      0.370113 
 H315  H     0.221867     -0.466868      0.382642 
 H316  H     0.264754     -0.043417     -0.402579 
 H317  H     0.344587     -0.044866     -0.354554 
 H318  H     0.120740      0.387079      0.277683 
 H319  H     0.182702      0.495610      0.250424 
 H320  H     0.211188      0.099577     -0.310036 
 H321  H     0.267783     -0.017962     -0.273031 
 H322  H     0.372199      0.123388     -0.262221 
 H323  H     0.327464      0.238779     -0.308084 
 H324  H     0.279264      0.326641      0.326714 
 H325  H     0.201141      0.231572      0.317737 
 H326  H     0.195033      0.221632      0.190959 
 H327  H     0.272547      0.324028      0.177863 
 H328  H     0.278152      0.168437      0.217925 
 H329  H     0.224626      0.252421     -0.218421 
 H330  H     0.269987      0.156134     -0.165281 
 H331  H     0.309588      0.312491     -0.187472 
 C332  C     0.303129     -0.229466      0.458431 
 C333  C     0.317874     -0.314795     -0.486924 
 C334  C     0.262569     -0.342109     -0.442060 
 C335  C     0.194481     -0.282071     -0.448190 
 C336  C     0.184650     -0.192875      0.498671 
 C337  C     0.237826     -0.165879      0.449065 
 O338  O     0.275564     -0.420627     -0.388811 
 C339  C     0.219390     -0.488834     -0.356894 
 C340  C     0.217868     -0.443577     -0.282208 
 C341  C     0.210889     -0.300679     -0.267775 
 C342  C     0.224007     -0.254496     -0.190817 
 O343  O     0.223781     -0.083418      0.398974 
 C344  C     0.263081     -0.056007      0.337595 
 C345  C     0.271941     -0.183503      0.300619 
 C346  C     0.302995     -0.179894      0.223063 
 C347  C     0.248616     -0.134814      0.168412 
 H348  H     0.149189     -0.294606     -0.411143 
 H349  H     0.351247     -0.206102      0.426601 
 H350  H     0.230542     -0.000125      0.306852 
 H351  H     0.311020     -0.001037      0.350822 
 H352  H     0.166483     -0.467553     -0.383189 
 H353  H     0.225676      0.406149     -0.367479 
 H354  H     0.307486     -0.253108      0.325805 
 H355  H     0.220236     -0.227446      0.300087 
 H356  H     0.168896     -0.490570     -0.259509 
 H357  H     0.265978     -0.498582     -0.261834 
 H358  H     0.240132     -0.241187     -0.305597 
 H359  H     0.154933     -0.278999     -0.283721 
 H360  H     0.355527     -0.126426      0.222147 
 H361  H     0.318460     -0.275545      0.205253 
 H362  H     0.198581     -0.188825      0.169288 
 H363  H     0.235409     -0.031739      0.174919 
 H364  H     0.266253     -0.150694      0.117070 
 H365  H     0.282771     -0.258383     -0.182431 
 H366  H     0.225875     -0.148040     -0.191367 
 H367  H     0.196040     -0.293626     -0.142007 
 N368  N    -0.487957     -0.481517     -0.172170 
 C369  C    -0.450990      0.404614     -0.199894 
 C370  C     0.437433     -0.480423     -0.196753 
 C371  C    -0.449787     -0.373801     -0.203527 
 C372  C     0.435480     -0.462951     -0.278706 
 H373  H     0.414666      0.427875     -0.180897 
 H374  H     0.406933     -0.407626     -0.166700 
 C375  C    -0.465963      0.380824     -0.282108 
 H376  H    -0.391860      0.411221     -0.192613 
 H377  H    -0.460133      0.319902     -0.164292 
 C378  C    -0.442595     -0.400174     -0.284061 
 H379  H    -0.479550     -0.282623     -0.195110 
 H380  H    -0.397674     -0.367670     -0.180148 
 H381  H    -0.416698      0.349185     -0.308131 
 H382  H     0.493601      0.305329     -0.288369 
 H383  H     0.392663      0.483826     -0.305440 
 H384  H     0.428020     -0.359857     -0.286369 
 H385  H    -0.386747     -0.427545     -0.300493 
 N386  N    -0.492595     -0.495215     -0.310513 
 H387  H    -0.451939     -0.312277     -0.316109 
 C388  C    -0.263825     -0.354014      0.455963 
 C389  C    -0.316128     -0.294270     -0.499572 
 C390  C    -0.300627     -0.193448     -0.452897 
 C391  C    -0.228853     -0.147448     -0.451834 
 C392  C    -0.176387     -0.206350     -0.494510 
 C393  C    -0.192786     -0.315435      0.464357 
 O394  O    -0.353915     -0.138643     -0.415771 
 C395  C    -0.353802     -0.010311     -0.395653 
 C396  C    -0.423336      0.030548     -0.361239 
 C397  C    -0.486869      0.051072     -0.409824 
 C398  C     0.480757     -0.068388     -0.439354 
 O399  O    -0.138421     -0.383608      0.433137 
 C400  C    -0.150094      0.498460      0.394773 
 C401  C    -0.076649      0.432879      0.389508 
 C402  C    -0.019992      0.498011      0.346585 
 C403  C     0.003234     -0.367997      0.374097 
 H404  H    -0.216013     -0.078123     -0.410866 
 H405  H    -0.282536     -0.437439      0.426976 
 H406  H    -0.178418      0.435988      0.429600 
 H407  H    -0.179028     -0.484898      0.345774 
 H408  H    -0.313111     -0.013677     -0.354926 
 H409  H    -0.335240      0.052583     -0.436736 
 H410  H    -0.053459      0.413536      0.441938 
 H411  H    -0.089183      0.340454      0.369861 
 H412  H    -0.438493     -0.045954     -0.325715 
 H413  H    -0.409769      0.123570     -0.337242 
 H414  H     0.473305      0.098778     -0.373666 
 H415  H    -0.468824      0.106760     -0.453425 
 H416  H     0.029858      0.440065      0.338417 
 H417  H    -0.040227     -0.495051      0.291962 
 H418  H    -0.040008     -0.300714      0.377612 
 H419  H     0.023057     -0.375890      0.428416 
 H420  H     0.042589     -0.320306      0.341191 
 H421  H    -0.478534     -0.126364     -0.465926 
 H422  H     0.457832     -0.123025     -0.395292 
 H423  H     0.435087     -0.051086     -0.472145 
loop_  
_geom_bond_atom_site_label_1  
_geom_bond_atom_site_label_2  
Cu0   Cu1 
Cu0   O4 
Cu0   O7 
Cu0   O10 
Cu0   O13 
Cu0   N82 
Cu1   O2 
Cu1   O5 
Cu1   O8 
Cu1   O11 
Cu1   N276 
O2   C3 
C3   O4 
C3   C32 
O5   C6 
C6   O7 
C6   C85 
O8   C9 
C9   O10 
C9   C177 
O11   C12 
C12   O13 
C12   C124 
Cu14   Cu15 
Cu14   O18 
Cu14   O21 
Cu14   O24 
Cu14   O27 
Cu14   N174 
Cu15   O16 
Cu15   O19 
Cu15   O22 
Cu15   O25 
Cu15   N368 
O16   C17 
C17   O18 
C17   C121 
O19   C20 
C20   O21 
C20   C180 
O22   C23 
C23   O24 
C23   C88 
O25   C26 
C26   O27 
C26   C29 
C28   C29 
C28   C33 
C28   H45 
C29   C30 
C30   C31 
C30   O34 
C31   C32 
C31   H44 
C32   C33 
C33   O39 
O34   C35 
C35   C36 
C35   H48 
C35   H49 
C36   C37 
C36   H52 
C36   H53 
C37   C38 
C37   H54 
C37   H55 
C38   H61 
C38   H62 
C38   H63 
O39   C40 
C40   C41 
C40   H46 
C40   H47 
C41   C42 
C41   H50 
C41   H51 
C42   C43 
C42   H56 
C42   H57 
C43   H58 
C43   H59 
C43   H60 
N64   C65 
N64   C66 
N64   C67 
N64   Cu213 
C65   C71 
C65   H72 
C65   H73 
C66   C68 
C66   H69 
C66   H70 
C67   C74 
C67   H75 
C67   H76 
C68   H79 
C68   H80 
C68   N82 
C71   H77 
C71   H78 
C71   N82 
C74   H81 
C74   N82 
C74   H83 
C84   C85 
C84   C89 
C84   H101 
C85   C86 
C86   C87 
C86   O90 
C87   C88 
C87   H100 
C88   C89 
C89   O95 
O90   C91 
C91   C92 
C91   H104 
C91   H105 
C92   C93 
C92   H108 
C92   H109 
C93   C94 
C93   H110 
C93   H111 
C94   H117 
C94   H118 
C94   H119 
O95   C96 
C96   C97 
C96   H102 
C96   H103 
C97   C98 
C97   H106 
C97   H107 
C98   C99 
C98   H112 
C98   H113 
C99   H114 
C99   H115 
C99   H116 
C120   C121 
C120   C125 
C120   H137 
C121   C122 
C122   C123 
C122   O126 
C123   C124 
C123   H136 
C124   C125 
C125   O131 
O126   C127 
C127   C128 
C127   H140 
C127   H141 
C128   C129 
C128   H144 
C128   H145 
C129   C130 
C129   H146 
C129   H147 
C130   H153 
C130   H154 
C130   H155 
O131   C132 
C132   C133 
C132   H138 
C132   H139 
C133   C134 
C133   H142 
C133   H143 
C134   C135 
C134   H148 
C134   H149 
C135   H150 
C135   H151 
C135   H152 
N156   C157 
N156   C158 
N156   C159 
N156   Cu227 
C157   C163 
C157   H164 
C157   H165 
C158   C160 
C158   H161 
C158   H162 
C159   C166 
C159   H167 
C159   H168 
C160   H171 
C160   H172 
C160   N174 
C163   H169 
C163   H170 
C163   N174 
C166   H173 
C166   N174 
C166   H175 
C176   C177 
C176   C181 
C176   H193 
C177   C178 
C178   C179 
C178   O182 
C179   C180 
C179   H192 
C180   C181 
C181   O187 
O182   C183 
C183   C184 
C183   H196 
C183   H197 
C184   C185 
C184   H200 
C184   H201 
C185   C186 
C185   H202 
C185   H203 
C186   H209 
C186   H210 
C186   H211 
O187   C188 
C188   C189 
C188   H194 
C188   H195 
C189   C190 
C189   H198 
C189   H199 
C190   C191 
C190   H204 
C190   H205 
C191   H206 
C191   H207 
C191   H208 
Cu212   Cu213 
Cu212   O216 
Cu212   O219 
Cu212   O222 
Cu212   O225 
Cu212   N294 
Cu213   O214 
Cu213   O217 
Cu213   O220 
Cu213   O223 
O214   C215 
C215   O216 
C215   C244 
O217   C218 
C218   O219 
C218   C300 
O220   C221 
C221   O222 
C221   C392 
O223   C224 
C224   O225 
C224   C336 
Cu226   Cu227 
Cu226   O230 
Cu226   O233 
Cu226   O236 
Cu226   O239 
Cu226   N386 
Cu227   O228 
Cu227   O231 
Cu227   O234 
Cu227   O237 
O228   C229 
C229   O230 
C229   C333 
O231   C232 
C232   O233 
C232   C389 
O234   C235 
C235   O236 
C235   C297 
O237   C238 
C238   O239 
C238   C241 
C240   C241 
C240   C245 
C240   H257 
C241   C242 
C242   C243 
C242   O246 
C243   C244 
C243   H256 
C244   C245 
C245   O251 
O246   C247 
C247   C248 
C247   H260 
C247   H261 
C248   C249 
C248   H264 
C248   H265 
C249   C250 
C249   H266 
C249   H267 
C250   H273 
C250   H274 
C250   H275 
O251   C252 
C252   C253 
C252   H258 
C252   H259 
C253   C254 
C253   H262 
C253   H263 
C254   C255 
C254   H268 
C254   H269 
C255   H270 
C255   H271 
C255   H272 
N276   C277 
N276   C278 
N276   C279 
C277   C283 
C277   H284 
C277   H285 
C278   C280 
C278   H281 
C278   H282 
C279   C286 
C279   H287 
C279   H288 
C280   H291 
C280   H292 
C280   N294 
C283   H289 
C283   H290 
C283   N294 
C286   H293 
C286   N294 
C286   H295 
C296   C297 
C296   C301 
C296   H313 
C297   C298 
C298   C299 
C298   O302 
C299   C300 
C299   H312 
C300   C301 
C301   O307 
O302   C303 
C303   C304 
C303   H316 
C303   H317 
C304   C305 
C304   H320 
C304   H321 
C305   C306 
C305   H322 
C305   H323 
C306   H329 
C306   H330 
C306   H331 
O307   C308 
C308   C309 
C308   H314 
C308   H315 
C309   C310 
C309   H318 
C309   H319 
C310   C311 
C310   H324 
C310   H325 
C311   H326 
C311   H327 
C311   H328 
C332   C333 
C332   C337 
C332   H349 
C333   C334 
C334   C335 
C334   O338 
C335   C336 
C335   H348 
C336   C337 
C337   O343 
O338   C339 
C339   C340 
C339   H352 
C339   H353 
C340   C341 
C340   H356 
C340   H357 
C341   C342 
C341   H358 
C341   H359 
C342   H365 
C342   H366 
C342   H367 
O343   C344 
C344   C345 
C344   H350 
C344   H351 
C345   C346 
C345   H354 
C345   H355 
C346   C347 
C346   H360 
C346   H361 
C347   H362 
C347   H363 
C347   H364 
N368   C369 
N368   C370 
N368   C371 
C369   C375 
C369   H376 
C369   H377 
C370   C372 
C370   H373 
C370   H374 
C371   C378 
C371   H379 
C371   H380 
C372   H383 
C372   H384 
C372   N386 
C375   H381 
C375   H382 
C375   N386 
C378   H385 
C378   N386 
C378   H387 
C388   C389 
C388   C393 
C388   H405 
C389   C390 
C390   C391 
C390   O394 
C391   C392 
C391   H404 
C392   C393 
C393   O399 
O394   C395 
C395   C396 
C395   H408 
C395   H409 
C396   C397 
C396   H412 
C396   H413 
C397   C398 
C397   H414 
C397   H415 
C398   H421 
C398   H422 
C398   H423 
O399   C400 
C400   C401 
C400   H406 
C400   H407 
C401   C402 
C401   H410 
C401   H411 
C402   C403 
C402   H416 
C402   H417 
C403   H418 
C403   H419 
C403   H420 
  
#END  
