data_
_symmetry_cell_setting           triclinic 
_symmetry_space_group_name_H-M   'P 1' 
_symmetry_Int_Tables_number      1 
loop_ 
_symmetry_equiv_pos_site_id 
_symmetry_equiv_pos_as_xyz 
1 x,y,z 
_cell_length_a             15.303548        
_cell_length_b             15.489372        
_cell_length_c             19.075298        
_cell_angle_alpha          91.711180        
_cell_angle_beta           87.152980        
_cell_angle_gamma          90.126640        
loop_  
_atom_site_label   
_atom_site_type_symbol  
_atom_site_fract_x  
_atom_site_fract_y  
_atom_site_fract_z 
 Cu0  Cu    -0.003630      0.001838      0.069337 
 Cu1  Cu     0.008661     -0.001224     -0.067064 
 O2  O    -0.103315      0.064495     -0.056150 
 C3  C    -0.126498      0.104926      0.000854 
 O4  O    -0.094215      0.092815      0.060162 
 O5  O     0.074240      0.109891     -0.053580 
 C6  C     0.107624      0.127852      0.005124 
 O7  O     0.088108      0.091122      0.062562 
 O8  O    -0.058359     -0.112884     -0.058111 
 C9  C    -0.101356     -0.129389     -0.001115 
 O10  O    -0.093388     -0.089379      0.057653 
 O11  O     0.119673     -0.065328     -0.060375 
 C12  C     0.134031     -0.100963     -0.002778 
 O13  O     0.090420     -0.086877      0.055188 
 Cu14  Cu     0.495885     -0.497214      0.069676 
 Cu15  Cu    -0.495346     -0.499972     -0.066872 
 O16  O     0.430199     -0.394447     -0.051525 
 C17  C     0.389503     -0.375658      0.006930 
 O18  O     0.398494     -0.414463      0.063939 
 O19  O    -0.389884     -0.425405     -0.056522 
 C20  C    -0.377731     -0.385869      0.001890 
 O21  O    -0.420170     -0.399171      0.059666 
 O22  O     0.396148      0.429394     -0.057362 
 C23  C     0.374580      0.393347      0.000084 
 O24  O     0.411128      0.406689      0.058071 
 O25  O    -0.420881      0.393381     -0.058764 
 C26  C    -0.386826      0.378564     -0.000486 
 O27  O    -0.406171      0.419044      0.057263 
 C28  C    -0.201322      0.234289      0.055103 
 C29  C    -0.195197      0.174365     -0.001243 
 C30  C    -0.251276      0.180126     -0.057138 
 C31  C    -0.313381      0.247153     -0.056156 
 C32  C    -0.319214      0.307552      0.000258 
 C33  C    -0.262632      0.301629      0.056040 
 O34  O    -0.240470      0.119886     -0.110926 
 C35  C    -0.307944      0.103563     -0.158877 
 C36  C    -0.272062      0.036918     -0.213229 
 C37  C    -0.338001      0.002764     -0.265549 
 C38  C    -0.295945     -0.048018     -0.328575 
 O39  O    -0.268532      0.362152      0.110067 
 C40  C    -0.204067      0.364294      0.162262 
 C41  C    -0.228036      0.437377      0.214642 
 C42  C    -0.162652      0.450395      0.272482 
 C43  C    -0.193811     -0.483692      0.329952 
 H44  H    -0.357084      0.252258     -0.099344 
 H45  H    -0.157020      0.229070      0.097937 
 H46  H    -0.203882      0.302264      0.189097 
 H47  H    -0.138844      0.374713      0.136711 
 H48  H    -0.366437      0.079603     -0.129467 
 H49  H    -0.324377      0.163886     -0.184289 
 H50  H    -0.233787      0.497958      0.186370 
 H51  H    -0.292995      0.424191      0.239287 
 H52  H    -0.216309      0.065843     -0.242674 
 H53  H    -0.246220     -0.018208     -0.185624 
 H54  H    -0.387120     -0.037599     -0.238059 
 H55  H    -0.374069      0.056819     -0.285551 
 H56  H    -0.150984      0.387905      0.296281 
 H57  H    -0.099249      0.471131      0.248752 
 H58  H    -0.143539     -0.471598      0.368252 
 H59  H    -0.209668     -0.421574      0.307567 
 H60  H    -0.253021      0.494041      0.359047 
 H61  H    -0.345625     -0.073065     -0.363613 
 H62  H    -0.251088     -0.007374     -0.360138 
 H63  H    -0.258286     -0.103174     -0.311696 
 N64  N    -0.012057      0.014090      0.320524 
 C65  C     0.040236     -0.059961      0.291110 
 C66  C    -0.101446      0.007047      0.294713 
 C67  C     0.027165      0.094357      0.293164 
 C68  C    -0.099057      0.005065      0.212650 
 H69  H    -0.132451     -0.051844      0.314988 
 H70  H    -0.140986      0.061832      0.316621 
 C71  C     0.042451     -0.061902      0.209140 
 H72  H     0.107266     -0.054886      0.309621 
 H73  H     0.012078     -0.120301      0.311648 
 C74  C     0.030307      0.092398      0.211168 
 H75  H    -0.012084      0.149484      0.314526 
 H76  H     0.093485      0.102413      0.312514 
 H77  H     0.110545     -0.058118      0.187599 
 H78  H     0.015070     -0.123070      0.188734 
 H79  H    -0.128812     -0.055037      0.192465 
 H80  H    -0.137468      0.058921      0.193508 
 H81  H     0.098511      0.097676      0.190413 
 N82  N    -0.007904      0.011194      0.183477 
 H83  H    -0.005442      0.147727      0.191441 
 C84  C     0.173177      0.260374     -0.045429 
 C85  C     0.175251      0.198178      0.006181 
 C86  C     0.239804      0.200969      0.056091 
 C87  C     0.302735      0.266880      0.053098 
 C88  C     0.301889      0.328026      0.000733 
 C89  C     0.237026      0.325655     -0.048946 
 O90  O     0.240507      0.139104      0.106087 
 C91  C     0.314932      0.135354      0.148615 
 C92  C     0.302470      0.065040      0.202098 
 C93  C     0.385939      0.046655      0.240806 
 C94  C     0.432167      0.127967      0.268390 
 O95  O     0.237255      0.388431     -0.098204 
 C96  C     0.188651      0.375525     -0.160181 
 C97  C     0.228885      0.301023     -0.204647 
 C98  C     0.182962      0.281303     -0.272825 
 C99  C     0.223161      0.203768     -0.314380 
 H100  H     0.354385      0.269997      0.090627 
 H101  H     0.121315      0.257619     -0.082772 
 H102  H     0.118874      0.365057     -0.145986 
 H103  H     0.193010      0.435844     -0.189276 
 H104  H     0.373835      0.123084      0.114134 
 H105  H     0.322189      0.198106      0.176456 
 H106  H     0.298175      0.315345     -0.217558 
 H107  H     0.228394      0.241972     -0.173944 
 H108  H     0.249521      0.084102      0.240659 
 H109  H     0.280604      0.004989      0.175831 
 H110  H     0.368983      0.004574      0.284945 
 H111  H     0.431979      0.009439      0.205583 
 H112  H     0.113021      0.269158     -0.260638 
 H113  H     0.186731      0.338476     -0.305696 
 H114  H     0.185430      0.186932     -0.360218 
 H115  H     0.290567      0.217305     -0.333551 
 H116  H     0.224445      0.146311     -0.282136 
 H117  H     0.489332      0.110771      0.297665 
 H118  H     0.456212      0.168840      0.225428 
 H119  H     0.388238      0.167500      0.303533 
 C120  C     0.209705     -0.213114      0.060487 
 C121  C     0.205995     -0.166808     -0.001342 
 C122  C     0.264816     -0.185827     -0.058975 
 C123  C     0.325079     -0.253397     -0.053817 
 C124  C     0.326130     -0.301751      0.006998 
 C125  C     0.267982     -0.281838      0.064393 
 O126  O     0.261943     -0.139446     -0.119159 
 C127  C     0.326864     -0.155821     -0.175176 
 C128  C     0.308280     -0.100045     -0.237038 
 C129  C     0.376614     -0.109269     -0.298647 
 C130  C     0.355193     -0.054947     -0.361547 
 O131  O     0.266244     -0.325090      0.125734 
 C132  C     0.199634     -0.390227      0.132414 
 C133  C     0.170183     -0.397724      0.209503 
 C134  C     0.125992     -0.315811      0.241958 
 C135  C     0.097474     -0.324408      0.319639 
 H136  H     0.371681     -0.268741     -0.097520 
 H137  H     0.165171     -0.199481      0.105864 
 H138  H     0.143686     -0.374500      0.100872 
 H139  H     0.227572     -0.451666      0.111072 
 H140  H     0.392122     -0.141240     -0.155792 
 H141  H     0.324725     -0.224498     -0.191827 
 H142  H     0.124387     -0.452405      0.214678 
 H143  H     0.226708     -0.413889      0.240126 
 H144  H     0.243867     -0.117989     -0.256188 
 H145  H     0.303797     -0.031771     -0.219263 
 H146  H     0.441475     -0.090761     -0.280581 
 H147  H     0.381735     -0.177682     -0.315893 
 H148  H     0.170843     -0.260596      0.236175 
 H149  H     0.068690     -0.300188      0.212108 
 H150  H     0.067065     -0.264553      0.341451 
 H151  H     0.049526     -0.376719      0.326820 
 H152  H     0.153482     -0.338554      0.351364 
 H153  H     0.405300     -0.063217     -0.404542 
 H154  H     0.292019     -0.073914     -0.382437 
 H155  H     0.351584      0.014227     -0.347081 
 N156  N     0.487466      0.495121      0.319768 
 C157  C    -0.489943      0.408187      0.290184 
 C158  C     0.400651     -0.481500      0.295104 
 C159  C    -0.447156     -0.442738      0.291647 
 C160  C     0.402357     -0.481221      0.213222 
 H161  H     0.351693      0.472268      0.315792 
 H162  H     0.381463     -0.417358      0.317047 
 C163  C    -0.489224      0.407559      0.208141 
 H164  H    -0.425474      0.389298      0.308048 
 H165  H     0.462443      0.360972      0.311497 
 C166  C    -0.445839     -0.443016      0.209800 
 H167  H    -0.462797     -0.377768      0.313710 
 H168  H    -0.382198     -0.459613      0.309572 
 H169  H    -0.424809      0.387084      0.185300 
 H170  H     0.462743      0.360745      0.188412 
 H171  H     0.353213      0.473782      0.192595 
 H172  H     0.385943     -0.416415      0.195537 
 H173  H    -0.380265     -0.459574      0.186930 
 N174  N     0.489875      0.494336      0.182966 
 H175  H    -0.461287     -0.378102      0.191646 
 C176  C    -0.231922     -0.334521     -0.041902 
 C177  C    -0.306677     -0.318938      0.001808 
 C178  C    -0.314809     -0.242362      0.042808 
 C179  C    -0.245534     -0.183047      0.041752 
 C180  C    -0.170823     -0.198093     -0.002220 
 C181  C    -0.163321     -0.273914     -0.044592 
 O182  O    -0.388796     -0.226558      0.084442 
 C183  C    -0.427129     -0.142029      0.081969 
 C184  C     0.486747     -0.150657      0.045790 
 C185  C     0.439864     -0.064411      0.035786 
 C186  C     0.488520     -0.003465     -0.014836 
 O187  O    -0.088364     -0.287595     -0.085854 
 C188  C    -0.082321     -0.363349     -0.131249 
 C189  C     0.007448     -0.367049     -0.169351 
 C190  C     0.081368     -0.399996     -0.125403 
 C191  C     0.094238     -0.347131     -0.057609 
 H192  H    -0.250349     -0.124891      0.075581 
 H193  H    -0.227735     -0.394553     -0.073493 
 H194  H    -0.092946     -0.421648     -0.100176 
 H195  H    -0.133903     -0.360437     -0.169374 
 H196  H    -0.437455     -0.116459      0.136219 
 H197  H    -0.383336     -0.097004      0.053697 
 H198  H     0.003721     -0.409466     -0.216461 
 H199  H     0.024472     -0.302291     -0.188187 
 H200  H     0.498087     -0.183967     -0.005698 
 H201  H     0.442993     -0.193057      0.076909 
 H202  H     0.374522     -0.078030      0.016448 
 H203  H     0.428240     -0.031365      0.087209 
 H204  H     0.068768     -0.467838     -0.112440 
 H205  H     0.142959     -0.399939     -0.157815 
 H206  H     0.151609     -0.369946     -0.031147 
 H207  H     0.104265     -0.278529     -0.068668 
 H208  H     0.037501     -0.351653     -0.020260 
 H209  H     0.450440      0.055671     -0.021163 
 H210  H    -0.447587      0.016322      0.004098 
 H211  H     0.499625     -0.034250     -0.067175 
 Cu212  Cu    -0.018155      0.010859     -0.428800 
 Cu213  Cu    -0.008865      0.009506      0.434477 
 O214  O    -0.091640      0.108431      0.448907 
 C215  C    -0.130916      0.127873     -0.492255 
 O216  O    -0.118365      0.091743     -0.434439 
 O217  O     0.090088      0.090922      0.444588 
 C218  C     0.100835      0.129598     -0.496650 
 O219  O     0.062626      0.111317     -0.438076 
 O220  O    -0.107530     -0.073535      0.442377 
 C221  C    -0.128424     -0.110142      0.499703 
 O222  O    -0.098899     -0.089077     -0.440797 
 O223  O     0.075625     -0.087546      0.441002 
 C224  C     0.105182     -0.106352      0.499915 
 O225  O     0.081822     -0.070750     -0.441108 
 Cu226  Cu     0.478037     -0.487015     -0.430289 
 Cu227  Cu     0.493075     -0.495478      0.433248 
 O228  O     0.403936     -0.401617      0.439875 
 C229  C     0.379352     -0.363858      0.497695 
 O230  O     0.405841     -0.382116     -0.442139 
 O231  O    -0.413604     -0.407200      0.445041 
 C232  C    -0.384014     -0.386994     -0.495366 
 O233  O    -0.413080     -0.416319     -0.437020 
 O234  O     0.400458      0.413948      0.443282 
 C235  C     0.359843      0.400052     -0.498153 
 O236  O     0.370773      0.441291     -0.440442 
 O237  O    -0.416402      0.415305      0.444213 
 C238  C    -0.405506      0.384566     -0.495649 
 O239  O    -0.448919      0.406557     -0.439230 
 C240  C    -0.267394      0.318038      0.454817 
 C241  C    -0.333268      0.319632     -0.491473 
 C242  C    -0.331349      0.261808     -0.436130 
 C243  C    -0.262903      0.201317     -0.435682 
 C244  C    -0.198126      0.198690     -0.490364 
 C245  C    -0.198123      0.259610      0.456641 
 O246  O    -0.398020      0.266591     -0.385319 
 C247  C    -0.411238      0.196540     -0.338813 
 C248  C    -0.493101      0.213574     -0.291599 
 C249  C     0.483874      0.140349     -0.241087 
 C250  C     0.404459      0.158410     -0.190909 
 O251  O    -0.132007      0.262838      0.406013 
 C252  C    -0.069773      0.330381      0.418255 
 C253  C     0.009703      0.319942      0.367603 
 C254  C     0.073395      0.396638      0.370912 
 C255  C     0.156658      0.383575      0.323749 
 H256  H    -0.261397      0.154651     -0.393988 
 H257  H    -0.267939      0.362445      0.411561 
 H258  H    -0.101576      0.393299      0.412737 
 H259  H    -0.049950      0.327135      0.472725 
 H260  H    -0.417933      0.136362     -0.370457 
 H261  H    -0.353339      0.191884     -0.307091 
 H262  H     0.044541      0.260551      0.380022 
 H263  H    -0.011352      0.310928      0.313489 
 H264  H    -0.483259      0.273526     -0.260621 
 H265  H     0.451071      0.224946     -0.324465 
 H266  H     0.472582      0.080294     -0.271676 
 H267  H    -0.460021      0.128250     -0.209231 
 H268  H     0.039777      0.455659      0.356044 
 H269  H     0.091681      0.407986      0.425517 
 H270  H     0.199903      0.440065      0.327577 
 H271  H     0.193715      0.327019      0.339171 
 H272  H     0.141446      0.373929      0.268345 
 H273  H     0.392840      0.104997     -0.154903 
 H274  H     0.413217      0.217533     -0.158633 
 H275  H     0.345163      0.165645     -0.220042 
 N276  N     0.011474      0.008852     -0.180085 
 C277  C     0.099310     -0.004798     -0.213950 
 C278  C    -0.046283     -0.060678     -0.205849 
 C279  C    -0.021309      0.092927     -0.202818 
 C280  C    -0.054225     -0.056359     -0.286891 
 H281  H    -0.018786     -0.123541     -0.192456 
 H282  H    -0.111064     -0.055575     -0.178231 
 C283  C     0.094382     -0.008927     -0.295715 
 H284  H     0.142497      0.048100     -0.196907 
 H285  H     0.126634     -0.065108     -0.195121 
 C286  C    -0.021185      0.095257     -0.284635 
 H287  H    -0.088025      0.103179     -0.179898 
 H288  H     0.019318      0.145453     -0.181539 
 H289  H     0.140882      0.036164     -0.321105 
 H290  H     0.112557     -0.073990     -0.316182 
 H291  H    -0.038416     -0.119416     -0.312575 
 H292  H    -0.121737     -0.040855     -0.299330 
 H293  H     0.024941      0.144569     -0.304611 
 N294  N     0.004771      0.010338     -0.316555 
 H295  H    -0.086253      0.113309     -0.301742 
 C296  C     0.209500      0.347473     -0.466191 
 C297  C     0.293144      0.329202     -0.496387 
 C298  C     0.314760      0.246497      0.475954 
 C299  C     0.249122      0.183529      0.472696 
 C300  C     0.166018      0.201548     -0.496961 
 C301  C     0.145317      0.282453     -0.465507 
 O302  O     0.399763      0.228642      0.454251 
 C303  C     0.427182      0.139935      0.455538 
 C304  C    -0.473476      0.134862      0.449217 
 C305  C    -0.439193      0.041627      0.440916 
 C306  C    -0.339152      0.034834      0.439401 
 O307  O     0.062279      0.291459     -0.435853 
 C308  C     0.033083      0.371240     -0.402795 
 C309  C    -0.056015      0.353070     -0.366868 
 C310  C    -0.098125      0.431536     -0.327357 
 C311  C    -0.186735      0.410639     -0.290551 
 H312  H     0.262861      0.119599      0.448931 
 H313  H     0.194499      0.411743     -0.443852 
 H314  H     0.079795      0.394269     -0.364380 
 H315  H     0.028586      0.420299     -0.443077 
 H316  H     0.402722      0.111699     -0.494834 
 H317  H     0.398556      0.103283      0.411987 
 H318  H    -0.101007      0.328488     -0.406168 
 H319  H    -0.049179      0.300449     -0.329900 
 H320  H    -0.448295      0.172664      0.404522 
 H321  H    -0.447085      0.165767      0.496334 
 H322  H    -0.467299      0.003066      0.484098 
 H323  H    -0.462967      0.012075      0.392239 
 H324  H    -0.053221      0.457051     -0.288415 
 H325  H    -0.107133      0.483390     -0.364547 
 H326  H    -0.214918      0.467881     -0.262587 
 H327  H    -0.234002      0.387843     -0.328586 
 H328  H    -0.180467      0.359995     -0.251940 
 H329  H    -0.317308     -0.032383      0.430977 
 H330  H    -0.308079      0.072913      0.397290 
 H331  H    -0.313589      0.058068      0.489317 
 C332  C     0.255060     -0.284423     -0.443322 
 C333  C     0.310458     -0.294938      0.496394 
 C334  C     0.298682     -0.244899      0.437139 
 C335  C     0.229586     -0.185156      0.438704 
 C336  C     0.174342     -0.175013      0.499004 
 C337  C     0.184435     -0.227069     -0.442999 
 O338  O     0.356267     -0.254671      0.380068 
 C339  C     0.348140     -0.200411      0.320928 
 C340  C     0.428096     -0.212545      0.270898 
 C341  C    -0.488316     -0.167329      0.295014 
 C342  C    -0.465575     -0.184481      0.370830 
 O343  O     0.125649     -0.219619     -0.386868 
 C344  C     0.094235     -0.296670     -0.353784 
 C345  C    -0.002616     -0.309412     -0.367194 
 C346  C    -0.023186     -0.366092     -0.432064 
 C347  C     0.008802     -0.330897      0.496941 
 H348  H     0.219081     -0.145365      0.393554 
 H349  H     0.265214     -0.322132     -0.396974 
 H350  H     0.131713     -0.354331     -0.372065 
 H351  H     0.104209     -0.287332     -0.297310 
 H352  H     0.288114     -0.218666      0.294641 
 H353  H     0.342632     -0.132242      0.338692 
 H354  H    -0.034947     -0.338468     -0.320765 
 H355  H    -0.033780     -0.245941     -0.371637 
 H356  H     0.440701     -0.282010      0.262320 
 H357  H     0.412918     -0.188342      0.219142 
 H358  H    -0.433189     -0.187804      0.259092 
 H359  H    -0.494682     -0.097224      0.288904 
 H360  H     0.004547     -0.430827     -0.426569 
 H361  H    -0.094563     -0.375213     -0.432349 
 H362  H    -0.015001     -0.371186      0.453486 
 H363  H    -0.014716     -0.264791      0.490245 
 H364  H     0.080493     -0.330247      0.490966 
 H365  H    -0.403012     -0.154296      0.383314 
 H366  H     0.484747     -0.157945      0.409066 
 H367  H    -0.460249     -0.253895      0.380026 
 N368  N     0.490002     -0.492937     -0.180397 
 C369  C     0.428438      0.441315     -0.206509 
 C370  C     0.460175     -0.407879     -0.203369 
 C371  C    -0.422389      0.489254     -0.213698 
 C372  C     0.459037     -0.406010     -0.285307 
 H373  H     0.393971     -0.395402     -0.179824 
 H374  H    -0.497099     -0.356951     -0.182493 
 C375  C     0.423893      0.443763     -0.288141 
 H376  H     0.449009      0.377197     -0.189966 
 H377  H     0.363256      0.453950     -0.181255 
 C378  C    -0.425914      0.488132     -0.295329 
 H379  H    -0.376307     -0.460906     -0.195720 
 H380  H    -0.398413      0.426806     -0.196044 
 H381  H     0.439683      0.380321     -0.313146 
 H382  H     0.356997      0.459684     -0.302509 
 H383  H     0.393072     -0.389590     -0.301567 
 H384  H    -0.496516     -0.356082     -0.306582 
 H385  H    -0.407032      0.423912     -0.317324 
 N386  N     0.485067     -0.490929     -0.317081 
 H387  H    -0.378571     -0.465651     -0.318110 
 C388  C    -0.213373     -0.223147     -0.437329 
 C389  C    -0.191541     -0.185014      0.498445 
 C390  C    -0.226958     -0.216961      0.436112 
 C391  C    -0.285625     -0.286603      0.439787 
 C392  C    -0.310401     -0.322149     -0.495534 
 C393  C    -0.271517     -0.293277     -0.433761 
 O394  O    -0.203809     -0.176733      0.374731 
 C395  C    -0.231700     -0.206090      0.307172 
 C396  C    -0.155737     -0.251768      0.267164 
 C397  C    -0.180674     -0.288753      0.195241 
 C398  C    -0.103989     -0.329868      0.151598 
 O399  O    -0.291997     -0.335945     -0.372983 
 C400  C    -0.257900     -0.310836     -0.306471 
 C401  C    -0.329873     -0.264739     -0.261983 
 C402  C    -0.299663     -0.228046     -0.191558 
 C403  C    -0.374582     -0.193623     -0.142098 
 H404  H    -0.314754     -0.311931      0.392376 
 H405  H    -0.184411     -0.197646     -0.389936 
 H406  H    -0.238895     -0.370692     -0.281505 
 H407  H    -0.198335     -0.271381     -0.311533 
 H408  H    -0.289848     -0.247683      0.310513 
 H409  H    -0.250988     -0.148333      0.279408 
 H410  H    -0.358368     -0.212805     -0.291722 
 H411  H    -0.383086     -0.310879     -0.251461 
 H412  H    -0.101244     -0.206009      0.259541 
 H413  H    -0.130508     -0.303635      0.298808 
 H414  H    -0.233327     -0.336709      0.202474 
 H415  H    -0.208474     -0.236620      0.165453 
 H416  H    -0.265086     -0.278898     -0.165146 
 H417  H    -0.251326     -0.176456     -0.201093 
 H418  H    -0.349140     -0.164111     -0.094104 
 H419  H    -0.413287     -0.144443     -0.166802 
 H420  H    -0.419330     -0.245742     -0.125847 
 H421  H    -0.125839     -0.356894      0.101462 
 H422  H    -0.052883     -0.281948      0.139112 
 H423  H    -0.074169     -0.382538      0.179446 
loop_  
_geom_bond_atom_site_label_1  
_geom_bond_atom_site_label_2  
Cu0   Cu1 
Cu0   O4 
Cu0   O7 
Cu0   O10 
Cu0   O13 
Cu0   N82 
Cu1   O2 
Cu1   O5 
Cu1   O8 
Cu1   O11 
Cu1   N276 
O2   C3 
C3   O4 
C3   C29 
O5   C6 
C6   O7 
C6   C85 
O8   C9 
C9   O10 
C9   C180 
O11   C12 
C12   O13 
C12   C121 
Cu14   Cu15 
Cu14   O18 
Cu14   O21 
Cu14   O24 
Cu14   O27 
Cu14   N174 
Cu15   O16 
Cu15   O19 
Cu15   O22 
Cu15   O25 
Cu15   N368 
O16   C17 
C17   O18 
C17   C124 
O19   C20 
C20   O21 
C20   C177 
O22   C23 
C23   O24 
C23   C88 
O25   C26 
C26   O27 
C26   C32 
C28   C29 
C28   C33 
C28   H45 
C29   C30 
C30   C31 
C30   O34 
C31   C32 
C31   H44 
C32   C33 
C33   O39 
O34   C35 
C35   C36 
C35   H48 
C35   H49 
C36   C37 
C36   H52 
C36   H53 
C37   C38 
C37   H54 
C37   H55 
C38   H61 
C38   H62 
C38   H63 
O39   C40 
C40   C41 
C40   H46 
C40   H47 
C41   C42 
C41   H50 
C41   H51 
C42   C43 
C42   H56 
C42   H57 
C43   H58 
C43   H59 
C43   H60 
N64   C65 
N64   C66 
N64   C67 
N64   Cu213 
C65   C71 
C65   H72 
C65   H73 
C66   C68 
C66   H69 
C66   H70 
C67   C74 
C67   H75 
C67   H76 
C68   H79 
C68   H80 
C68   N82 
C71   H77 
C71   H78 
C71   N82 
C74   H81 
C74   N82 
C74   H83 
C84   C85 
C84   C89 
C84   H101 
C85   C86 
C86   C87 
C86   O90 
C87   C88 
C87   H100 
C88   C89 
C89   O95 
O90   C91 
C91   C92 
C91   H104 
C91   H105 
C92   C93 
C92   H108 
C92   H109 
C93   C94 
C93   H110 
C93   H111 
C94   H117 
C94   H118 
C94   H119 
O95   C96 
C96   C97 
C96   H102 
C96   H103 
C97   C98 
C97   H106 
C97   H107 
C98   C99 
C98   H112 
C98   H113 
C99   H114 
C99   H115 
C99   H116 
C120   C121 
C120   C125 
C120   H137 
C121   C122 
C122   C123 
C122   O126 
C123   C124 
C123   H136 
C124   C125 
C125   O131 
O126   C127 
C127   C128 
C127   H140 
C127   H141 
C128   C129 
C128   H144 
C128   H145 
C129   C130 
C129   H146 
C129   H147 
C130   H153 
C130   H154 
C130   H155 
O131   C132 
C132   C133 
C132   H138 
C132   H139 
C133   C134 
C133   H142 
C133   H143 
C134   C135 
C134   H148 
C134   H149 
C135   H150 
C135   H151 
C135   H152 
N156   C157 
N156   C158 
N156   C159 
N156   Cu227 
C157   C163 
C157   H164 
C157   H165 
C158   C160 
C158   H161 
C158   H162 
C159   C166 
C159   H167 
C159   H168 
C160   H171 
C160   H172 
C160   N174 
C163   H169 
C163   H170 
C163   N174 
C166   H173 
C166   N174 
C166   H175 
C176   C177 
C176   C181 
C176   H193 
C177   C178 
C178   C179 
C178   O182 
C179   C180 
C179   H192 
C180   C181 
C181   O187 
O182   C183 
C183   C184 
C183   H196 
C183   H197 
C184   C185 
C184   H200 
C184   H201 
C185   C186 
C185   H202 
C185   H203 
C186   H209 
C186   H210 
C186   H211 
O187   C188 
C188   C189 
C188   H194 
C188   H195 
C189   C190 
C189   H198 
C189   H199 
C190   C191 
C190   H204 
C190   H205 
C191   H206 
C191   H207 
C191   H208 
Cu212   Cu213 
Cu212   O216 
Cu212   O219 
Cu212   O222 
Cu212   O225 
Cu212   N294 
Cu213   O214 
Cu213   O217 
Cu213   O220 
Cu213   O223 
O214   C215 
C215   O216 
C215   C244 
O217   C218 
C218   O219 
C218   C300 
O220   C221 
C221   O222 
C221   C389 
O223   C224 
C224   O225 
C224   C336 
Cu226   Cu227 
Cu226   O230 
Cu226   O233 
Cu226   O236 
Cu226   O239 
Cu226   N386 
Cu227   O228 
Cu227   O231 
Cu227   O234 
Cu227   O237 
O228   C229 
C229   O230 
C229   C333 
O231   C232 
C232   O233 
C232   C392 
O234   C235 
C235   O236 
C235   C297 
O237   C238 
C238   O239 
C238   C241 
C240   C241 
C240   C245 
C240   H257 
C241   C242 
C242   C243 
C242   O246 
C243   C244 
C243   H256 
C244   C245 
C245   O251 
O246   C247 
C247   C248 
C247   H260 
C247   H261 
C248   C249 
C248   H264 
C248   H265 
C249   C250 
C249   H266 
C249   H267 
C250   H273 
C250   H274 
C250   H275 
O251   C252 
C252   C253 
C252   H258 
C252   H259 
C253   C254 
C253   H262 
C253   H263 
C254   C255 
C254   H268 
C254   H269 
C255   H270 
C255   H271 
C255   H272 
N276   C277 
N276   C278 
N276   C279 
C277   C283 
C277   H284 
C277   H285 
C278   C280 
C278   H281 
C278   H282 
C279   C286 
C279   H287 
C279   H288 
C280   H291 
C280   H292 
C280   N294 
C283   H289 
C283   H290 
C283   N294 
C286   H293 
C286   N294 
C286   H295 
C296   C297 
C296   C301 
C296   H313 
C297   C298 
C298   C299 
C298   O302 
C299   C300 
C299   H312 
C300   C301 
C301   O307 
O302   C303 
C303   C304 
C303   H316 
C303   H317 
C304   C305 
C304   H320 
C304   H321 
C305   C306 
C305   H322 
C305   H323 
C306   H329 
C306   H330 
C306   H331 
O307   C308 
C308   C309 
C308   H314 
C308   H315 
C309   C310 
C309   H318 
C309   H319 
C310   C311 
C310   H324 
C310   H325 
C311   H326 
C311   H327 
C311   H328 
C332   C333 
C332   C337 
C332   H349 
C333   C334 
C334   C335 
C334   O338 
C335   C336 
C335   H348 
C336   C337 
C337   O343 
O338   C339 
C339   C340 
C339   H352 
C339   H353 
C340   C341 
C340   H356 
C340   H357 
C341   C342 
C341   H358 
C341   H359 
C342   H365 
C342   H366 
C342   H367 
O343   C344 
C344   C345 
C344   H350 
C344   H351 
C345   C346 
C345   H354 
C345   H355 
C346   C347 
C346   H360 
C346   H361 
C347   H362 
C347   H363 
C347   H364 
N368   C369 
N368   C370 
N368   C371 
C369   C375 
C369   H376 
C369   H377 
C370   C372 
C370   H373 
C370   H374 
C371   C378 
C371   H379 
C371   H380 
C372   H383 
C372   H384 
C372   N386 
C375   H381 
C375   H382 
C375   N386 
C378   H385 
C378   N386 
C378   H387 
C388   C389 
C388   C393 
C388   H405 
C389   C390 
C390   C391 
C390   O394 
C391   C392 
C391   H404 
C392   C393 
C393   O399 
O394   C395 
C395   C396 
C395   H408 
C395   H409 
C396   C397 
C396   H412 
C396   H413 
C397   C398 
C397   H414 
C397   H415 
C398   H421 
C398   H422 
C398   H423 
O399   C400 
C400   C401 
C400   H406 
C400   H407 
C401   C402 
C401   H410 
C401   H411 
C402   C403 
C402   H416 
C402   H417 
C403   H418 
C403   H419 
C403   H420 
  
#END  
