data_
_symmetry_cell_setting           triclinic 
_symmetry_space_group_name_H-M   'P 1' 
_symmetry_Int_Tables_number      1 
loop_ 
_symmetry_equiv_pos_site_id 
_symmetry_equiv_pos_as_xyz 
1 x,y,z 
_cell_length_a             16.165309        
_cell_length_b             14.629986        
_cell_length_c             19.048455        
_cell_angle_alpha          88.820534        
_cell_angle_beta           86.595600        
_cell_angle_gamma          90.030003        
loop_  
_atom_site_label   
_atom_site_type_symbol  
_atom_site_fract_x  
_atom_site_fract_y  
_atom_site_fract_z 
 Cu0  Cu     0.004115      0.004773      0.068395 
 Cu1  Cu     0.009815      0.007759     -0.068320 
 O2  O    -0.078547      0.101316     -0.055705 
 C3  C    -0.114290      0.118397      0.004080 
 O4  O    -0.093246      0.086224      0.062941 
 O5  O     0.096176      0.105883     -0.064725 
 C6  C     0.116634      0.134260     -0.005353 
 O7  O     0.082281      0.109678      0.053986 
 O8  O    -0.078426     -0.087365     -0.051537 
 C9  C    -0.104296     -0.119025      0.008804 
 O10  O    -0.073716     -0.099902      0.066745 
 O11  O     0.095914     -0.089744     -0.061968 
 C12  C     0.124932     -0.111437     -0.003175 
 O13  O     0.101000     -0.077629      0.055689 
 Cu14  Cu    -0.494636     -0.497289      0.076768 
 Cu15  Cu    -0.490494     -0.492904     -0.059955 
 O16  O     0.413821     -0.409791     -0.044384 
 C17  C     0.390657     -0.376605      0.014880 
 O18  O     0.420668     -0.398467      0.073245 
 O19  O    -0.411931     -0.389075     -0.059371 
 C20  C    -0.381186     -0.369954     -0.001491 
 O21  O    -0.405803     -0.402994      0.058713 
 O22  O     0.430826      0.403035     -0.044264 
 C23  C     0.397016      0.378258      0.015208 
 O24  O     0.417711      0.406619      0.074513 
 O25  O    -0.395033      0.423573     -0.056644 
 C26  C    -0.374885      0.388480      0.001519 
 O27  O    -0.408678      0.406342      0.061892 
 C28  C    -0.310457      0.252885      0.054505 
 C29  C    -0.307216      0.318433      0.000013 
 C30  C    -0.243309      0.317176     -0.053198 
 C31  C    -0.182989      0.248800     -0.051397 
 C32  C    -0.185523      0.183889      0.003578 
 C33  C    -0.250876      0.183311      0.055721 
 O34  O    -0.241179      0.380057     -0.107355 
 C35  C    -0.162887      0.422008     -0.128203 
 C36  C    -0.142602      0.408942     -0.206599 
 C37  C    -0.119022      0.311628     -0.228686 
 C38  C    -0.101394      0.305282     -0.308480 
 O39  O    -0.254881      0.116150      0.107098 
 C40  C    -0.335027      0.089429      0.137874 
 C41  C    -0.382635      0.037402      0.084548 
 C42  C    -0.469252      0.005835      0.112865 
 C43  C     0.484728     -0.049232      0.059639 
 H44  H    -0.133005      0.247472     -0.092445 
 H45  H    -0.360595      0.255943      0.095401 
 H46  H    -0.324693      0.045394      0.183799 
 H47  H    -0.369963      0.148617      0.158352 
 H48  H    -0.169724      0.495206     -0.116789 
 H49  H    -0.112582      0.396321     -0.096604 
 H50  H    -0.389066      0.080535      0.037146 
 H51  H    -0.346042     -0.022415      0.067122 
 H52  H    -0.196587      0.429808     -0.235560 
 H53  H    -0.091721      0.455664     -0.224177 
 H54  H    -0.064098      0.289239     -0.201482 
 H55  H    -0.169487      0.264296     -0.211421 
 H56  H    -0.463940     -0.035630      0.161269 
 H57  H     0.493591      0.066129      0.127993 
 H58  H     0.422932     -0.070200      0.081265 
 H59  H     0.476278     -0.008842      0.011285 
 H60  H    -0.481196     -0.111651      0.044815 
 H61  H    -0.085731      0.235400     -0.324247 
 H62  H    -0.155295      0.326836     -0.337211 
 H63  H    -0.049403      0.349536     -0.326926 
 N64  N     0.006832      0.008338      0.317236 
 C65  C     0.058326     -0.067563      0.288974 
 C66  C    -0.078016     -0.002389      0.293650 
 C67  C     0.041429      0.095199      0.287176 
 C68  C    -0.076746     -0.005003      0.211895 
 H69  H    -0.105486     -0.065633      0.317062 
 H70  H    -0.116784      0.054540      0.313517 
 C71  C     0.061107     -0.065776      0.206968 
 H72  H     0.121423     -0.061781      0.307582 
 H73  H     0.032466     -0.132893      0.310296 
 C74  C     0.040126      0.096287      0.205366 
 H75  H     0.005857      0.152925      0.309803 
 H76  H     0.105575      0.102694      0.302965 
 H77  H     0.125185     -0.054654      0.185321 
 H78  H     0.040403     -0.131764      0.187131 
 H79  H    -0.099744     -0.071392      0.195016 
 H80  H    -0.117868      0.047894      0.191267 
 H81  H     0.103101      0.108083      0.181559 
 N82  N     0.008237      0.008518      0.180757 
 H83  H     0.001114      0.152371      0.186512 
 C84  C     0.232920      0.194505      0.059319 
 C85  C     0.189166      0.198343     -0.002243 
 C86  C     0.213017      0.260204     -0.057263 
 C87  C     0.281363      0.317548     -0.049069 
 C88  C     0.324834      0.313828      0.012283 
 C89  C     0.301254      0.252067      0.067114 
 O90  O     0.168909      0.265472     -0.116863 
 C91  C     0.198608      0.327606     -0.172293 
 C92  C     0.144714      0.325680     -0.235022 
 C93  C     0.182575      0.381737     -0.298273 
 C94  C     0.127592      0.387677     -0.361051 
 O95  O     0.347265      0.250215      0.125359 
 C96  C     0.327319      0.185938      0.181659 
 C97  C     0.387193      0.202171      0.238924 
 C98  C     0.371433      0.139995      0.304347 
 C99  C     0.430820      0.158031      0.362426 
 H100  H     0.300622      0.367266     -0.090304 
 H101  H     0.214517      0.145489      0.101251 
 H102  H     0.262813      0.196222      0.201908 
 H103  H     0.333360      0.115849      0.161828 
 H104  H     0.199071      0.397462     -0.151695 
 H105  H     0.262604      0.308466     -0.188852 
 H106  H     0.451209      0.192273      0.217237 
 H107  H     0.382984      0.274050      0.254764 
 H108  H     0.135933      0.254577     -0.250872 
 H109  H     0.082638      0.352160     -0.219577 
 H110  H     0.196767      0.451249     -0.281523 
 H111  H     0.242646      0.351865     -0.315601 
 H112  H     0.307120      0.148806      0.325628 
 H113  H     0.376885      0.068116      0.288829 
 H114  H     0.416727      0.112974      0.408481 
 H115  H     0.495648      0.146080      0.344235 
 H116  H     0.425976      0.228850      0.380425 
 H117  H     0.159378      0.424756     -0.405655 
 H118  H     0.111610      0.319430     -0.379292 
 H119  H     0.069683      0.424234     -0.347527 
 C120  C     0.281871     -0.299388     -0.050036 
 C121  C     0.321754     -0.307608      0.013081 
 C122  C     0.297398     -0.252854      0.070362 
 C123  C     0.232584     -0.190137      0.062988 
 C124  C     0.193069     -0.181429     -0.000425 
 C125  C     0.217023     -0.236932     -0.057453 
 O126  O     0.338343     -0.261465      0.131210 
 C127  C     0.315302     -0.203974      0.189291 
 C128  C     0.376264     -0.220324      0.245979 
 C129  C     0.359745     -0.160757      0.310732 
 C130  C     0.425816     -0.171418      0.364755 
 O131  O     0.177163     -0.229464     -0.118939 
 C132  C     0.191508     -0.298290     -0.171042 
 C133  C     0.135803     -0.279047     -0.231064 
 C134  C     0.137980     -0.353658     -0.286605 
 C135  C     0.084041     -0.330960     -0.348090 
 H136  H     0.213094     -0.147368      0.107140 
 H137  H     0.301411     -0.342327     -0.094074 
 H138  H     0.256956     -0.296371     -0.190876 
 H139  H     0.177945     -0.366186     -0.146867 
 H140  H     0.317354     -0.131725      0.171724 
 H141  H     0.251555     -0.220737      0.209224 
 H142  H     0.071522     -0.270715     -0.209621 
 H143  H     0.154672     -0.213580     -0.256707 
 H144  H     0.374128     -0.292793      0.262685 
 H145  H     0.439600     -0.207107      0.223403 
 H146  H     0.356442     -0.088576      0.293776 
 H147  H     0.298479     -0.177878      0.336092 
 H148  H     0.202384     -0.364456     -0.307006 
 H149  H     0.116939     -0.418706     -0.261492 
 H150  H     0.086108     -0.386180     -0.386335 
 H151  H     0.018955     -0.320875     -0.330160 
 H152  H     0.105204     -0.268002     -0.376044 
 H153  H     0.412635     -0.126600      0.409525 
 H154  H     0.428319     -0.241892      0.385618 
 H155  H     0.487770     -0.153587      0.341763 
 N156  N    -0.497819     -0.497694      0.328153 
 C157  C    -0.451498      0.422323      0.300236 
 C158  C     0.416755      0.497679      0.304315 
 C159  C    -0.457710     -0.414064      0.297158 
 C160  C     0.417472      0.498202      0.222277 
 H161  H     0.386620      0.435059      0.326491 
 H162  H     0.380531     -0.444212      0.325508 
 C163  C    -0.451627      0.420990      0.218135 
 H164  H    -0.387417      0.425427      0.316936 
 H165  H    -0.479388      0.359242      0.323918 
 C166  C    -0.455899     -0.415367      0.215017 
 H167  H    -0.491585     -0.353789      0.317370 
 H168  H    -0.394236     -0.409219      0.315055 
 H169  H    -0.387579      0.421504      0.194656 
 H170  H    -0.481105      0.358096      0.200584 
 H171  H     0.386100      0.436851      0.204164 
 H172  H     0.383089     -0.442377      0.202717 
 H173  H    -0.391348     -0.413342      0.192755 
 N174  N    -0.496540     -0.498855      0.190911 
 H175  H    -0.487136     -0.354654      0.193863 
 C176  C    -0.296191     -0.263581      0.062467 
 C177  C    -0.309971     -0.303751     -0.001857 
 C178  C    -0.257384     -0.283646     -0.061662 
 C179  C    -0.191267     -0.222779     -0.055285 
 C180  C    -0.177080     -0.183128      0.009130 
 C181  C    -0.230187     -0.202502      0.068793 
 O182  O    -0.269719     -0.323998     -0.124644 
 C183  C    -0.206733     -0.311955     -0.180650 
 C184  C    -0.227522     -0.369052     -0.242867 
 C185  C    -0.158995     -0.368175     -0.302289 
 C186  C    -0.178568     -0.427981     -0.364340 
 O187  O    -0.218189     -0.161781      0.131711 
 C188  C    -0.283915     -0.168281      0.185969 
 C189  C    -0.263784     -0.109026      0.247283 
 C190  C    -0.336472     -0.098104      0.302052 
 C191  C    -0.317352     -0.032343      0.360570 
 H192  H    -0.149540     -0.206120     -0.100933 
 H193  H    -0.337776     -0.280382      0.108170 
 H194  H    -0.342275     -0.145719      0.164069 
 H195  H    -0.291151     -0.240019      0.204018 
 H196  H    -0.203010     -0.239155     -0.196549 
 H197  H    -0.146444     -0.333210     -0.161605 
 H198  H    -0.210962     -0.138476      0.273447 
 H199  H    -0.243227     -0.041183      0.227475 
 H200  H    -0.239946     -0.439596     -0.224464 
 H201  H    -0.285444     -0.344557     -0.263939 
 H202  H    -0.148162     -0.297393     -0.321495 
 H203  H    -0.100537     -0.391331     -0.281070 
 H204  H    -0.391295     -0.073405      0.275777 
 H205  H    -0.353312     -0.165523      0.325513 
 H206  H    -0.371131     -0.025639      0.398131 
 H207  H    -0.264845     -0.056573      0.390032 
 H208  H    -0.301629      0.036382      0.339432 
 H209  H    -0.128568     -0.423607     -0.405927 
 H210  H    -0.185890      0.499746     -0.348436 
 H211  H    -0.236194     -0.406513     -0.387624 
 Cu212  Cu    -0.005629      0.002248     -0.433796 
 Cu213  Cu     0.004045      0.003348      0.429353 
 O214  O    -0.080666      0.102427      0.436472 
 C215  C    -0.115802      0.123558      0.495460 
 O216  O    -0.095810      0.092274     -0.444863 
 O217  O     0.093005      0.097278      0.432650 
 C218  C     0.112194      0.126735      0.491885 
 O219  O     0.077802      0.102416     -0.448672 
 O220  O    -0.085436     -0.089645      0.440885 
 C221  C    -0.113890     -0.120551     -0.499630 
 O222  O    -0.088649     -0.097721     -0.440160 
 O223  O     0.085124     -0.098619      0.439952 
 C224  C     0.111264     -0.120797      0.499648 
 O225  O     0.086873     -0.086729     -0.441689 
 Cu226  Cu     0.492028     -0.497991     -0.420011 
 Cu227  Cu    -0.498277     -0.495612      0.443176 
 O228  O     0.407385     -0.409166      0.450675 
 C229  C     0.382167     -0.376288     -0.490423 
 O230  O     0.408168     -0.398867     -0.430728 
 O231  O    -0.418147     -0.393078      0.451384 
 C232  C    -0.393555     -0.369348     -0.489197 
 O233  O    -0.421412     -0.401110     -0.429792 
 O234  O     0.421672      0.401203      0.455886 
 C235  C     0.388201      0.374589     -0.484831 
 O236  O     0.406270      0.404028     -0.425235 
 O237  O    -0.406663      0.416119      0.454095 
 C238  C    -0.388130      0.382319     -0.486612 
 O239  O    -0.421377      0.405080     -0.427333 
 C240  C    -0.229102      0.201975     -0.437242 
 C241  C    -0.187827      0.188812      0.497012 
 C242  C    -0.213900      0.235737      0.437071 
 C243  C    -0.281500      0.295634      0.444804 
 C244  C    -0.321047      0.310948     -0.489124 
 C245  C    -0.296285      0.262417     -0.429492 
 O246  O    -0.172979      0.224234      0.372583 
 C247  C    -0.196447      0.281583      0.314902 
 C248  C    -0.136826      0.268729      0.251343 
 C249  C    -0.155595      0.332313      0.189106 
 C250  C    -0.094411      0.321205      0.125389 
 O251  O    -0.337174      0.274719     -0.365148 
 C252  C    -0.322191      0.210495     -0.309222 
 C253  C    -0.377084      0.233123     -0.244623 
 C254  C    -0.367143      0.166220     -0.182547 
 C255  C    -0.421515      0.191109     -0.117218 
 H256  H    -0.302658      0.332619      0.398911 
 H257  H    -0.208705      0.164375     -0.391368 
 H258  H    -0.335325      0.140896     -0.326535 
 H259  H    -0.256804      0.213935     -0.296507 
 H260  H    -0.259954      0.263679      0.301985 
 H261  H    -0.195432      0.353657      0.330503 
 H262  H    -0.362764      0.302809     -0.228190 
 H263  H    -0.442267      0.233191     -0.258355 
 H264  H    -0.073023      0.281094      0.266222 
 H265  H    -0.139458      0.197252      0.234659 
 H266  H    -0.218882      0.318984      0.173387 
 H267  H    -0.154820      0.403902      0.205825 
 H268  H    -0.382440      0.096544     -0.198321 
 H269  H    -0.301807      0.164650     -0.169098 
 H270  H    -0.414274      0.141644     -0.073868 
 H271  H    -0.405316      0.258874     -0.098602 
 H272  H    -0.487299      0.193419     -0.128237 
 H273  H    -0.110150      0.366369      0.081326 
 H274  H    -0.030919      0.337061      0.138406 
 H275  H    -0.094201      0.250707      0.106835 
 N276  N    -0.003779      0.007977     -0.181425 
 C277  C     0.025901     -0.081060     -0.208090 
 C278  C    -0.089234      0.021910     -0.203675 
 C279  C     0.049452      0.080530     -0.215082 
 C280  C    -0.091310      0.019658     -0.285676 
 H281  H    -0.129873     -0.031480     -0.178607 
 H282  H    -0.112682      0.087918     -0.183947 
 C283  C     0.022757     -0.084222     -0.289862 
 H284  H     0.089968     -0.091530     -0.192826 
 H285  H    -0.012104     -0.136236     -0.182361 
 C286  C     0.048372      0.076888     -0.296932 
 H287  H     0.027359      0.147375     -0.195929 
 H288  H     0.113231      0.072114     -0.198399 
 H289  H     0.084941     -0.098156     -0.314100 
 H290  H    -0.018096     -0.139847     -0.305292 
 H291  H    -0.133303     -0.034570     -0.301666 
 H292  H    -0.115359      0.084582     -0.306441 
 H293  H     0.111350      0.063947     -0.320003 
 N294  N    -0.007403      0.003504     -0.318411 
 H295  H     0.028390      0.142943     -0.319016 
 C296  C     0.273281      0.314682      0.451490 
 C297  C     0.318766      0.306971     -0.488444 
 C298  C     0.298157      0.240119     -0.436244 
 C299  C     0.229887      0.183070     -0.445681 
 C300  C     0.183981      0.191421      0.494536 
 C301  C     0.205347      0.257337      0.441861 
 O302  O     0.344243      0.229844     -0.378013 
 C303  C     0.317183      0.160416     -0.326996 
 C304  C     0.369056      0.155799     -0.263013 
 C305  C     0.332271      0.087227     -0.207067 
 C306  C     0.379765      0.080209     -0.139957 
 O307  O     0.159967      0.266787      0.383180 
 C308  C     0.187612      0.335342      0.331700 
 C309  C     0.135967      0.338942      0.267586 
 C310  C     0.173356      0.405673      0.210632 
 C311  C     0.123231      0.414811      0.145134 
 H312  H     0.211842      0.130096     -0.406486 
 H313  H     0.290830      0.367970      0.412439 
 H314  H     0.185133      0.402558      0.356858 
 H315  H     0.252466      0.320580      0.314698 
 H316  H     0.252359      0.174650     -0.309531 
 H317  H     0.319650      0.093686     -0.352867 
 H318  H     0.131713      0.270300      0.245444 
 H319  H     0.072098      0.359598      0.283309 
 H320  H     0.432993      0.135889     -0.279167 
 H321  H     0.373062      0.223964     -0.239993 
 H322  H     0.267720      0.106437     -0.192493 
 H323  H     0.329242      0.019029     -0.230235 
 H324  H     0.180085      0.473720      0.233344 
 H325  H     0.236557      0.383329      0.194408 
 H326  H     0.154314      0.461076      0.105680 
 H327  H     0.115880      0.348404      0.120197 
 H328  H     0.061357      0.442970      0.158188 
 H329  H     0.350465      0.030085     -0.102486 
 H330  H     0.444080      0.058267     -0.151360 
 H331  H     0.380560      0.146071     -0.113247 
 C332  C     0.250715     -0.162280     -0.465155 
 C333  C     0.179870     -0.189102     -0.498069 
 C334  C     0.173932     -0.276374      0.473341 
 C335  C     0.242189     -0.335446      0.474889 
 C336  C     0.313142     -0.308457     -0.492445 
 C337  C     0.318925     -0.221356     -0.463612 
 O338  O     0.101265     -0.303075      0.446352 
 C339  C     0.084443     -0.399623      0.448078 
 C340  C    -0.007776     -0.415412      0.442821 
 C341  C    -0.034300      0.485598      0.460923 
 C342  C    -0.126771      0.468101      0.453367 
 O343  O     0.391427     -0.195222     -0.436136 
 C344  C     0.408430     -0.098797     -0.436105 
 C345  C    -0.498642     -0.084859     -0.434850 
 C346  C    -0.471083      0.013582     -0.453576 
 C347  C    -0.377388      0.027940     -0.451483 
 H348  H     0.240135     -0.403033      0.451643 
 H349  H     0.252805     -0.094826     -0.441694 
 H350  H     0.385103     -0.065221     -0.483315 
 H351  H     0.376163     -0.068913     -0.389452 
 H352  H     0.119671     -0.431541      0.403764 
 H353  H     0.104923     -0.430422      0.497391 
 H354  H    -0.479196     -0.103951     -0.382249 
 H355  H    -0.466483     -0.131801     -0.471877 
 H356  H    -0.042934     -0.368708      0.478114 
 H357  H    -0.024305     -0.397543      0.389116 
 H358  H     0.002277      0.438382      0.427166 
 H359  H    -0.019151      0.468770     -0.484686 
 H360  H    -0.490172      0.031605      0.493359 
 H361  H     0.496269      0.061372     -0.417618 
 H362  H    -0.360036      0.097303     -0.469946 
 H363  H    -0.356599      0.018756     -0.397999 
 H364  H    -0.342412     -0.020305     -0.485234 
 H365  H    -0.143211      0.397828      0.470107 
 H366  H    -0.165765     -0.485685      0.485812 
 H367  H    -0.143331      0.477432      0.398607 
 N368  N    -0.498516     -0.497914     -0.172220 
 C369  C     0.464585      0.416215     -0.195698 
 C370  C     0.450910     -0.420989     -0.197411 
 C371  C    -0.413952     -0.489196     -0.205367 
 C372  C     0.450501     -0.419735     -0.279321 
 H373  H     0.387169     -0.428672     -0.174081 
 H374  H     0.475154     -0.356129     -0.178436 
 C375  C     0.460581      0.417008     -0.277318 
 H376  H    -0.498561      0.358057     -0.177383 
 H377  H     0.401834      0.408270     -0.170533 
 C378  C    -0.415813     -0.491614     -0.286944 
 H379  H    -0.386964     -0.424460     -0.189041 
 H380  H    -0.374691      0.455397     -0.185854 
 H381  H     0.492985      0.357544     -0.300455 
 H382  H     0.395623      0.412606     -0.291685 
 H383  H     0.386368     -0.422756     -0.295982 
 H384  H     0.477908     -0.355863     -0.301948 
 H385  H    -0.380029      0.449664     -0.307591 
 N386  N     0.497914     -0.498119     -0.308434 
 H387  H    -0.386416     -0.429771     -0.311036 
 C388  C    -0.238145     -0.189358     -0.437460 
 C389  C    -0.185440     -0.186279     -0.498463 
 C390  C    -0.200801     -0.241221      0.443948 
 C391  C    -0.270977     -0.298018      0.448177 
 C392  C    -0.323437     -0.301643     -0.490625 
 C393  C    -0.308149     -0.246486     -0.433045 
 O394  O    -0.146653     -0.238407      0.385550 
 C395  C    -0.156746     -0.302283      0.330333 
 C396  C    -0.087309     -0.287692      0.273546 
 C397  C    -0.089847     -0.355154      0.212906 
 C398  C    -0.022012     -0.337385      0.154428 
 O399  O    -0.361414     -0.249778     -0.374051 
 C400  C    -0.349652     -0.186715     -0.318492 
 C401  C    -0.416376     -0.202864     -0.259712 
 C402  C    -0.412253     -0.135355     -0.199271 
 C403  C    -0.477310     -0.154285     -0.138787 
 H404  H    -0.283813     -0.341698      0.404321 
 H405  H    -0.224994     -0.145560     -0.393736 
 H406  H    -0.287803     -0.196582     -0.298346 
 H407  H    -0.352824     -0.116295     -0.339531 
 H408  H    -0.155245     -0.372401      0.352303 
 H409  H    -0.217484     -0.291714      0.308215 
 H410  H    -0.478067     -0.198763     -0.281232 
 H411  H    -0.410630     -0.272847     -0.238353 
 H412  H    -0.090586     -0.217618      0.251855 
 H413  H    -0.026861     -0.292970      0.297144 
 H414  H    -0.083949     -0.425469      0.233773 
 H415  H    -0.150857     -0.351339      0.190151 
 H416  H    -0.350090     -0.137821     -0.178549 
 H417  H    -0.420290     -0.065274     -0.219911 
 H418  H    -0.472678     -0.104178     -0.097005 
 H419  H     0.459389     -0.150738     -0.156793 
 H420  H    -0.469021     -0.222473     -0.114836 
 H421  H    -0.025593     -0.387088      0.112209 
 H422  H    -0.028061     -0.268849      0.130444 
 H423  H     0.040213     -0.342425      0.174520 
loop_  
_geom_bond_atom_site_label_1  
_geom_bond_atom_site_label_2  
Cu0   Cu1 
Cu0   O4 
Cu0   O7 
Cu0   O10 
Cu0   O13 
Cu0   N82 
Cu1   O2 
Cu1   O5 
Cu1   O8 
Cu1   O11 
Cu1   N276 
O2   C3 
C3   O4 
C3   C32 
O5   C6 
C6   O7 
C6   C85 
O8   C9 
C9   O10 
C9   C180 
O11   C12 
C12   O13 
C12   C124 
Cu14   Cu15 
Cu14   O18 
Cu14   O21 
Cu14   O24 
Cu14   O27 
Cu14   N174 
Cu15   O16 
Cu15   O19 
Cu15   O22 
Cu15   O25 
Cu15   N368 
O16   C17 
C17   O18 
C17   C121 
O19   C20 
C20   O21 
C20   C177 
O22   C23 
C23   O24 
C23   C88 
O25   C26 
C26   O27 
C26   C29 
C28   C29 
C28   C33 
C28   H45 
C29   C30 
C30   C31 
C30   O34 
C31   C32 
C31   H44 
C32   C33 
C33   O39 
O34   C35 
C35   C36 
C35   H48 
C35   H49 
C36   C37 
C36   H52 
C36   H53 
C37   C38 
C37   H54 
C37   H55 
C38   H61 
C38   H62 
C38   H63 
O39   C40 
C40   C41 
C40   H46 
C40   H47 
C41   C42 
C41   H50 
C41   H51 
C42   C43 
C42   H56 
C42   H57 
C43   H58 
C43   H59 
C43   H60 
N64   C65 
N64   C66 
N64   C67 
N64   Cu213 
C65   C71 
C65   H72 
C65   H73 
C66   C68 
C66   H69 
C66   H70 
C67   C74 
C67   H75 
C67   H76 
C68   H79 
C68   H80 
C68   N82 
C71   H77 
C71   H78 
C71   N82 
C74   H81 
C74   N82 
C74   H83 
C84   C85 
C84   C89 
C84   H101 
C85   C86 
C86   C87 
C86   O90 
C87   C88 
C87   H100 
C88   C89 
C89   O95 
O90   C91 
C91   C92 
C91   H104 
C91   H105 
C92   C93 
C92   H108 
C92   H109 
C93   C94 
C93   H110 
C93   H111 
C94   H117 
C94   H118 
C94   H119 
O95   C96 
C96   C97 
C96   H102 
C96   H103 
C97   C98 
C97   H106 
C97   H107 
C98   C99 
C98   H112 
C98   H113 
C99   H114 
C99   H115 
C99   H116 
C120   C121 
C120   C125 
C120   H137 
C121   C122 
C122   C123 
C122   O126 
C123   C124 
C123   H136 
C124   C125 
C125   O131 
O126   C127 
C127   C128 
C127   H140 
C127   H141 
C128   C129 
C128   H144 
C128   H145 
C129   C130 
C129   H146 
C129   H147 
C130   H153 
C130   H154 
C130   H155 
O131   C132 
C132   C133 
C132   H138 
C132   H139 
C133   C134 
C133   H142 
C133   H143 
C134   C135 
C134   H148 
C134   H149 
C135   H150 
C135   H151 
C135   H152 
N156   C157 
N156   C158 
N156   C159 
N156   Cu227 
C157   C163 
C157   H164 
C157   H165 
C158   C160 
C158   H161 
C158   H162 
C159   C166 
C159   H167 
C159   H168 
C160   H171 
C160   H172 
C160   N174 
C163   H169 
C163   H170 
C163   N174 
C166   H173 
C166   N174 
C166   H175 
C176   C177 
C176   C181 
C176   H193 
C177   C178 
C178   C179 
C178   O182 
C179   C180 
C179   H192 
C180   C181 
C181   O187 
O182   C183 
C183   C184 
C183   H196 
C183   H197 
C184   C185 
C184   H200 
C184   H201 
C185   C186 
C185   H202 
C185   H203 
C186   H209 
C186   H210 
C186   H211 
O187   C188 
C188   C189 
C188   H194 
C188   H195 
C189   C190 
C189   H198 
C189   H199 
C190   C191 
C190   H204 
C190   H205 
C191   H206 
C191   H207 
C191   H208 
Cu212   Cu213 
Cu212   O216 
Cu212   O219 
Cu212   O222 
Cu212   O225 
Cu212   N294 
Cu213   O214 
Cu213   O217 
Cu213   O220 
Cu213   O223 
O214   C215 
C215   O216 
C215   C241 
O217   C218 
C218   O219 
C218   C300 
O220   C221 
C221   O222 
C221   C389 
O223   C224 
C224   O225 
C224   C333 
Cu226   Cu227 
Cu226   O230 
Cu226   O233 
Cu226   O236 
Cu226   O239 
Cu226   N386 
Cu227   O228 
Cu227   O231 
Cu227   O234 
Cu227   O237 
O228   C229 
C229   O230 
C229   C336 
O231   C232 
C232   O233 
C232   C392 
O234   C235 
C235   O236 
C235   C297 
O237   C238 
C238   O239 
C238   C244 
C240   C241 
C240   C245 
C240   H257 
C241   C242 
C242   C243 
C242   O246 
C243   C244 
C243   H256 
C244   C245 
C245   O251 
O246   C247 
C247   C248 
C247   H260 
C247   H261 
C248   C249 
C248   H264 
C248   H265 
C249   C250 
C249   H266 
C249   H267 
C250   H273 
C250   H274 
C250   H275 
O251   C252 
C252   C253 
C252   H258 
C252   H259 
C253   C254 
C253   H262 
C253   H263 
C254   C255 
C254   H268 
C254   H269 
C255   H270 
C255   H271 
C255   H272 
N276   C277 
N276   C278 
N276   C279 
C277   C283 
C277   H284 
C277   H285 
C278   C280 
C278   H281 
C278   H282 
C279   C286 
C279   H287 
C279   H288 
C280   H291 
C280   H292 
C280   N294 
C283   H289 
C283   H290 
C283   N294 
C286   H293 
C286   N294 
C286   H295 
C296   C297 
C296   C301 
C296   H313 
C297   C298 
C298   C299 
C298   O302 
C299   C300 
C299   H312 
C300   C301 
C301   O307 
O302   C303 
C303   C304 
C303   H316 
C303   H317 
C304   C305 
C304   H320 
C304   H321 
C305   C306 
C305   H322 
C305   H323 
C306   H329 
C306   H330 
C306   H331 
O307   C308 
C308   C309 
C308   H314 
C308   H315 
C309   C310 
C309   H318 
C309   H319 
C310   C311 
C310   H324 
C310   H325 
C311   H326 
C311   H327 
C311   H328 
C332   C333 
C332   C337 
C332   H349 
C333   C334 
C334   C335 
C334   O338 
C335   C336 
C335   H348 
C336   C337 
C337   O343 
O338   C339 
C339   C340 
C339   H352 
C339   H353 
C340   C341 
C340   H356 
C340   H357 
C341   C342 
C341   H358 
C341   H359 
C342   H365 
C342   H366 
C342   H367 
O343   C344 
C344   C345 
C344   H350 
C344   H351 
C345   C346 
C345   H354 
C345   H355 
C346   C347 
C346   H360 
C346   H361 
C347   H362 
C347   H363 
C347   H364 
N368   C369 
N368   C370 
N368   C371 
C369   C375 
C369   H376 
C369   H377 
C370   C372 
C370   H373 
C370   H374 
C371   C378 
C371   H379 
C371   H380 
C372   H383 
C372   H384 
C372   N386 
C375   H381 
C375   H382 
C375   N386 
C378   H385 
C378   N386 
C378   H387 
C388   C389 
C388   C393 
C388   H405 
C389   C390 
C390   C391 
C390   O394 
C391   C392 
C391   H404 
C392   C393 
C393   O399 
O394   C395 
C395   C396 
C395   H408 
C395   H409 
C396   C397 
C396   H412 
C396   H413 
C397   C398 
C397   H414 
C397   H415 
C398   H421 
C398   H422 
C398   H423 
O399   C400 
C400   C401 
C400   H406 
C400   H407 
C401   C402 
C401   H410 
C401   H411 
C402   C403 
C402   H416 
C402   H417 
C403   H418 
C403   H419 
C403   H420 
  
#END  
