data_
_symmetry_cell_setting           triclinic 
_symmetry_space_group_name_H-M   'P 1' 
_symmetry_Int_Tables_number      1 
loop_ 
_symmetry_equiv_pos_site_id 
_symmetry_equiv_pos_as_xyz 
1 x,y,z 
_cell_length_a             15.135731        
_cell_length_b             15.613943        
_cell_length_c             19.092681        
_cell_angle_alpha          89.460123        
_cell_angle_beta           91.353914        
_cell_angle_gamma          90.104009        
loop_  
_atom_site_label   
_atom_site_type_symbol  
_atom_site_fract_x  
_atom_site_fract_y  
_atom_site_fract_z 
 Cu0  Cu    -0.001850      0.004122      0.060305 
 Cu1  Cu    -0.002199     -0.001111     -0.075978 
 O2  O    -0.098908      0.085017     -0.073238 
 C3  C    -0.131776      0.105406     -0.014929 
 O4  O    -0.110143      0.072520      0.044340 
 O5  O     0.088553      0.091611     -0.065366 
 C6  C     0.103551      0.129071     -0.007219 
 O7  O     0.066906      0.111533      0.050481 
 O8  O    -0.090115     -0.096036     -0.064566 
 C9  C    -0.111893     -0.123086     -0.004070 
 O10  O    -0.077489     -0.099376      0.054081 
 O11  O     0.093306     -0.086418     -0.061241 
 C12  C     0.128172     -0.103158     -0.001278 
 O13  O     0.108294     -0.066632      0.055586 
 Cu14  Cu     0.498730     -0.498052      0.069674 
 Cu15  Cu     0.497961      0.496846     -0.066611 
 O16  O     0.394031     -0.424304     -0.059822 
 C17  C     0.376681     -0.386102     -0.003123 
 O18  O     0.410976     -0.404076      0.056900 
 O19  O    -0.419823     -0.404345     -0.057920 
 C20  C    -0.384947     -0.382057      0.000435 
 O21  O    -0.406405     -0.410290      0.060579 
 O22  O     0.421193      0.394216     -0.057111 
 C23  C     0.384784      0.378200      0.001050 
 O24  O     0.401045      0.416278      0.058728 
 O25  O    -0.399358      0.420120     -0.053474 
 C26  C    -0.380441      0.385211      0.005533 
 O27  O    -0.411848      0.407648      0.063885 
 C28  C    -0.305912      0.274279     -0.062969 
 C29  C    -0.318014      0.310565      0.003066 
 C30  C    -0.271462      0.278654      0.062276 
 C31  C    -0.212894      0.210423      0.053531 
 C32  C    -0.199257      0.175611     -0.012581 
 C33  C    -0.246545      0.206561     -0.071681 
 O34  O    -0.281797      0.314467      0.127013 
 C35  C    -0.225290      0.285251      0.184087 
 C36  C    -0.239104      0.340736      0.247702 
 C37  C    -0.177310      0.318732      0.310214 
 C38  C    -0.183423      0.383250      0.369900 
 O39  O    -0.232865      0.171119     -0.136093 
 C40  C    -0.296143      0.186350     -0.192275 
 C41  C    -0.271060      0.132353     -0.254655 
 C42  C    -0.346506      0.115609     -0.308202 
 C43  C    -0.393387      0.196592     -0.335337 
 H44  H    -0.175869      0.184848      0.098721 
 H45  H    -0.342569      0.299093     -0.108515 
 H46  H    -0.362634      0.169216     -0.174734 
 H47  H    -0.295838      0.254776     -0.206883 
 H48  H    -0.240931      0.217897      0.196399 
 H49  H    -0.155758      0.289235      0.168619 
 H50  H    -0.215308      0.163051     -0.281291 
 H51  H    -0.246943      0.070001     -0.235112 
 H52  H    -0.230084      0.408522      0.233032 
 H53  H    -0.307849      0.333421      0.264197 
 H54  H    -0.193375      0.254226      0.330064 
 H55  H    -0.108619      0.315676      0.292826 
 H56  H    -0.319444      0.080934     -0.352873 
 H57  H    -0.395254      0.072170     -0.284742 
 H58  H    -0.442577      0.181617     -0.376740 
 H59  H    -0.428090      0.228597     -0.293123 
 H60  H    -0.346237      0.242435     -0.357448 
 H61  H    -0.139946      0.364963      0.414384 
 H62  H    -0.164245      0.447962      0.353030 
 H63  H    -0.251117      0.387181      0.389133 
 N64  N     0.000085     -0.002260      0.310292 
 C65  C     0.018709     -0.087686      0.281612 
 C66  C    -0.087592      0.025846      0.282905 
 C67  C     0.067332      0.058341      0.284181 
 C68  C    -0.089289      0.028871      0.201046 
 H69  H    -0.138569     -0.018267      0.302464 
 H70  H    -0.102477      0.089592      0.303980 
 C71  C     0.016068     -0.084940      0.199861 
 H72  H     0.084272     -0.108577      0.301194 
 H73  H    -0.029661     -0.134270      0.301577 
 C74  C     0.065507      0.061252      0.202348 
 H75  H     0.054494      0.122433      0.305514 
 H76  H     0.133151      0.038566      0.304336 
 H77  H     0.079619     -0.105979      0.179082 
 H78  H    -0.034763     -0.129280      0.179207 
 H79  H    -0.140839     -0.013974      0.179470 
 H80  H    -0.104897      0.094016      0.181835 
 H81  H     0.130300      0.043023      0.181849 
 N82  N    -0.003012      0.002672      0.173704 
 H83  H     0.051691      0.126875      0.183232 
 C84  C     0.229298      0.337510      0.020845 
 C85  C     0.313570      0.311650      0.001282 
 C86  C     0.329819      0.227515     -0.020178 
 C87  C     0.258844      0.169732     -0.025271 
 C88  C     0.174667      0.195600     -0.005846 
 C89  C     0.158459      0.279388      0.016369 
 O90  O     0.414747      0.204504     -0.034724 
 C91  C     0.432717      0.114939     -0.042564 
 C92  C    -0.468142      0.101450     -0.045222 
 C93  C    -0.443223      0.007443     -0.057165 
 C94  C    -0.343348     -0.008001     -0.058009 
 O95  O     0.073536      0.300794      0.032390 
 C96  C     0.052707      0.389854      0.039087 
 C97  C    -0.045726      0.398842      0.051244 
 C98  C    -0.074393      0.492205      0.061181 
 C99  C    -0.174423     -0.497155      0.068155 
 H100  H     0.268411      0.103905     -0.042583 
 H101  H     0.219320      0.403465      0.037595 
 H102  H     0.091126      0.416803      0.083322 
 H103  H     0.071364      0.424126     -0.009112 
 H104  H     0.405545      0.078880      0.001980 
 H105  H     0.400203      0.092376     -0.091260 
 H106  H    -0.083315      0.371040      0.006857 
 H107  H    -0.063416      0.360817      0.097669 
 H108  H    -0.441457      0.141681     -0.087280 
 H109  H    -0.436488      0.124002      0.003828 
 H110  H    -0.472449     -0.032788     -0.016081 
 H111  H    -0.473153     -0.014095     -0.107110 
 H112  H    -0.040568     -0.481698      0.107996 
 H113  H    -0.051863     -0.468797      0.016752 
 H114  H    -0.192238     -0.429408      0.073533 
 H115  H    -0.210833      0.478461      0.022070 
 H116  H    -0.198844      0.468254      0.114161 
 H117  H    -0.328537     -0.076338     -0.064229 
 H118  H    -0.312613      0.027004     -0.101231 
 H119  H    -0.310463      0.012992     -0.009265 
 C120  C     0.192433     -0.229813     -0.056978 
 C121  C     0.195093     -0.174360      0.000208 
 C122  C     0.257228     -0.186829      0.055165 
 C123  C     0.316089     -0.256101      0.051712 
 C124  C     0.312998     -0.311985     -0.005400 
 C125  C     0.251662     -0.298526     -0.060917 
 O126  O     0.258275     -0.130772      0.110109 
 C127  C     0.318110     -0.145395      0.168426 
 C128  C     0.293303     -0.085740      0.227275 
 C129  C     0.347599     -0.100597      0.295320 
 C130  C     0.308572     -0.055449      0.358411 
 O131  O     0.250120     -0.352482     -0.117340 
 C132  C     0.187223     -0.336913     -0.173679 
 C133  C     0.209768     -0.392945     -0.235317 
 C134  C     0.146691     -0.381982     -0.298972 
 C135  C     0.179921     -0.426985     -0.364294 
 H136  H     0.365229     -0.266360      0.093689 
 H137  H     0.142315     -0.220019     -0.098304 
 H138  H     0.120269     -0.351115     -0.155204 
 H139  H     0.190096     -0.269156     -0.190103 
 H140  H     0.312892     -0.212459      0.186277 
 H141  H     0.386318     -0.133455      0.151803 
 H142  H     0.276997     -0.376757     -0.251563 
 H143  H     0.211166     -0.460770     -0.218808 
 H144  H     0.300402     -0.018546      0.210072 
 H145  H     0.222881     -0.094768      0.238316 
 H146  H     0.351609     -0.169712      0.306888 
 H147  H     0.415972     -0.078658      0.287986 
 H148  H     0.080967     -0.407058     -0.285954 
 H149  H     0.137770     -0.313356     -0.310977 
 H150  H     0.133019     -0.419804     -0.408799 
 H151  H     0.243516     -0.400465     -0.380621 
 H152  H     0.190266     -0.495633     -0.354571 
 H153  H     0.348344     -0.067381      0.406403 
 H154  H     0.304239      0.014059      0.350113 
 H155  H     0.241398     -0.078483      0.368304 
 N156  N     0.499451     -0.495528      0.320535 
 C157  C     0.413331      0.473408      0.292542 
 C158  C    -0.487474     -0.407476      0.293180 
 C159  C    -0.429673      0.450125      0.293232 
 C160  C    -0.487319     -0.406763      0.211219 
 H161  H     0.459521     -0.366121      0.312450 
 H162  H    -0.424787     -0.381770      0.314705 
 C163  C     0.411000      0.475406      0.210668 
 H164  H     0.401960      0.407750      0.311827 
 H165  H     0.360254     -0.486673      0.313538 
 C166  C    -0.432991      0.449353      0.211472 
 H167  H    -0.365313      0.474588      0.312712 
 H168  H    -0.436643      0.384608      0.314206 
 H169  H     0.397185      0.410838      0.190167 
 H170  H     0.357662     -0.482486      0.190321 
 H171  H     0.461826     -0.362787      0.189576 
 H172  H    -0.423195     -0.383468      0.192377 
 H173  H    -0.445334      0.383773      0.192523 
 N174  N     0.496344     -0.493867      0.183628 
 H175  H    -0.369216      0.470332      0.190327 
 C176  C    -0.313679     -0.252073      0.049841 
 C177  C    -0.313249     -0.315878     -0.001051 
 C178  C    -0.247473     -0.318038     -0.051565 
 C179  C    -0.183040     -0.253431     -0.052364 
 C180  C    -0.183710     -0.189167     -0.001754 
 C181  C    -0.249895     -0.186742      0.048706 
 O182  O    -0.248070     -0.383790     -0.098459 
 C183  C    -0.164422     -0.414596     -0.121176 
 C184  C    -0.175005      0.490992     -0.138669 
 C185  C    -0.086717      0.445977     -0.151181 
 C186  C    -0.095678      0.348398     -0.156295 
 O187  O    -0.252010     -0.120171      0.095028 
 C188  C    -0.337348     -0.095308      0.119310 
 C189  C    -0.333284     -0.003839      0.146135 
 C190  C    -0.424885      0.033065      0.161278 
 C191  C    -0.422491      0.128138      0.180439 
 H192  H    -0.132356     -0.253625     -0.092123 
 H193  H    -0.364650     -0.252643      0.089405 
 H194  H    -0.386189     -0.100174      0.075804 
 H195  H    -0.357552     -0.139605      0.161208 
 H196  H    -0.143854     -0.377110     -0.167147 
 H197  H    -0.114037     -0.406008     -0.079258 
 H198  H    -0.291483     -0.001071      0.194028 
 H199  H    -0.300819      0.037420      0.107255 
 H200  H    -0.208549      0.458135     -0.095401 
 H201  H    -0.218875      0.483658     -0.185087 
 H202  H    -0.057758      0.471906     -0.199312 
 H203  H    -0.039670      0.461246     -0.108243 
 H204  H    -0.468688      0.024738      0.114957 
 H205  H    -0.454925     -0.003983      0.203948 
 H206  H    -0.489324      0.152464      0.189358 
 H207  H    -0.382378      0.139229      0.228239 
 H208  H    -0.394693      0.167126      0.138055 
 H209  H    -0.031224      0.317593     -0.162838 
 H210  H    -0.123555      0.321188     -0.108384 
 H211  H    -0.139007      0.329775     -0.200589 
 Cu212  Cu     0.017809     -0.016797     -0.440147 
 Cu213  Cu     0.010461     -0.009602      0.423553 
 O214  O    -0.080072      0.081284      0.434814 
 C215  C    -0.096196      0.110669      0.495156 
 O216  O    -0.057048      0.088338     -0.447801 
 O217  O     0.107525      0.075966      0.437446 
 C218  C     0.146286      0.089896      0.496289 
 O219  O     0.126786      0.053810     -0.446092 
 O220  O    -0.085245     -0.095232      0.428793 
 C221  C    -0.112722     -0.121259      0.487789 
 O222  O    -0.088893     -0.090952     -0.452806 
 O223  O     0.098944     -0.104188      0.429957 
 C224  C     0.123389     -0.137975      0.488195 
 O225  O     0.092416     -0.119587     -0.452252 
 Cu226  Cu    -0.483499      0.485502     -0.429427 
 Cu227  Cu    -0.488750      0.488332      0.434235 
 O228  O     0.437348     -0.407852      0.443974 
 C229  C     0.405827     -0.387218     -0.497171 
 O230  O     0.426441     -0.421557     -0.438284 
 O231  O    -0.382416     -0.437475      0.442345 
 C232  C    -0.358995     -0.405051     -0.498997 
 O233  O    -0.389593     -0.426376     -0.439776 
 O234  O     0.403196      0.417824      0.443472 
 C235  C     0.388169      0.377904     -0.499619 
 O236  O     0.423156      0.395500     -0.439997 
 O237  O    -0.414444      0.382221      0.445995 
 C238  C    -0.376850      0.361394     -0.495853 
 O239  O    -0.391690      0.395580     -0.436992 
 C240  C    -0.247474      0.160046      0.460726 
 C241  C    -0.168894      0.175447      0.498691 
 C242  C    -0.158906      0.249535     -0.460826 
 C243  C    -0.228754      0.307789     -0.456916 
 C244  C    -0.306851      0.293336     -0.495978 
 C245  C    -0.317837      0.218175      0.464874 
 O246  O    -0.082068      0.266508     -0.424821 
 C247  C    -0.011657      0.297181     -0.467462 
 C248  C     0.075421      0.297869     -0.426058 
 C249  C     0.081163      0.361156     -0.365073 
 C250  C     0.025960      0.337054     -0.301689 
 O251  O    -0.397621      0.204099      0.431843 
 C252  C    -0.426590      0.116989      0.424467 
 C253  C     0.473035      0.115585      0.416316 
 C254  C     0.435548      0.145254      0.344491 
 C255  C     0.464107      0.235310      0.322049 
 H256  H    -0.219630      0.365459     -0.425657 
 H257  H    -0.254463      0.102524      0.428927 
 H258  H    -0.395423      0.088646      0.378568 
 H259  H    -0.405662      0.079763      0.471326 
 H260  H    -0.005784      0.256243      0.486171 
 H261  H    -0.028548      0.362182     -0.486279 
 H262  H     0.449639      0.050001      0.426716 
 H263  H     0.444687      0.155351      0.457488 
 H264  H     0.089994      0.232728     -0.406414 
 H265  H     0.128307      0.313939     -0.462514 
 H266  H     0.150849      0.366372     -0.347922 
 H267  H     0.061735      0.425254     -0.384288 
 H268  H     0.453853      0.098837      0.304325 
 H269  H     0.362924      0.143827      0.346223 
 H270  H     0.430434      0.255008      0.272903 
 H271  H     0.448121      0.282256      0.362338 
 H272  H    -0.464428      0.238695      0.313666 
 H273  H    -0.045224      0.338519     -0.314237 
 H274  H     0.042530      0.272640     -0.281834 
 H275  H     0.038652      0.382304     -0.258931 
 N276  N     0.007558     -0.007068     -0.189621 
 C277  C     0.029460     -0.094476     -0.213294 
 C278  C    -0.079086      0.016951     -0.220865 
 C279  C     0.074495      0.052769     -0.217001 
 C280  C    -0.077248      0.013792     -0.302568 
 H281  H    -0.130001     -0.026538     -0.200393 
 H282  H    -0.095684      0.082078     -0.203762 
 C283  C     0.030125     -0.098449     -0.295119 
 H284  H     0.094780     -0.112565     -0.191138 
 H285  H    -0.018681     -0.140385     -0.192004 
 C286  C     0.077201      0.048051     -0.298631 
 H287  H     0.058403      0.118306     -0.200409 
 H288  H     0.139593      0.036939     -0.193132 
 H289  H     0.094975     -0.120427     -0.312981 
 H290  H    -0.019336     -0.144750     -0.315009 
 H291  H    -0.127823     -0.030767     -0.323363 
 H292  H    -0.092779      0.077422     -0.325048 
 H293  H     0.143223      0.027676     -0.315030 
 N294  N     0.010704     -0.013224     -0.326238 
 H295  H     0.064548      0.111570     -0.322511 
 C296  C     0.215731      0.214565      0.439570 
 C297  C     0.216957      0.157807      0.496720 
 C298  C     0.275846      0.170961     -0.446191 
 C299  C     0.332523      0.242383     -0.447238 
 C300  C     0.327277      0.301766      0.497433 
 C301  C     0.266370      0.289733      0.441773 
 O302  O     0.276326      0.113584     -0.391255 
 C303  C     0.315793      0.136922     -0.324809 
 C304  C     0.262672      0.208640     -0.292056 
 C305  C     0.298672      0.238038     -0.220402 
 C306  C     0.242478      0.309049     -0.188998 
 O307  O     0.255890      0.351630      0.391027 
 C308  C     0.170847      0.356945      0.356362 
 C309  C     0.153036      0.449681      0.335986 
 C310  C     0.058210      0.465086      0.308059 
 C311  C     0.036377      0.418514      0.239445 
 H312  H     0.380943      0.252248     -0.404749 
 H313  H     0.170955      0.203417      0.394901 
 H314  H     0.171305      0.315422      0.310031 
 H315  H     0.118681      0.334152      0.391338 
 H316  H     0.314737      0.079285     -0.291144 
 H317  H     0.385764      0.154242     -0.330949 
 H318  H     0.165033      0.489927      0.382396 
 H319  H     0.200605      0.470831      0.296596 
 H320  H     0.259942      0.264588     -0.327504 
 H321  H     0.193761      0.187585     -0.286601 
 H322  H     0.301678      0.183061     -0.183882 
 H323  H     0.367092      0.260874     -0.225585 
 H324  H     0.011166      0.445274      0.348285 
 H325  H     0.047732     -0.465687      0.300329 
 H326  H    -0.031189      0.433075      0.220713 
 H327  H     0.081734      0.438101      0.198200 
 H328  H     0.041278      0.348639      0.245639 
 H329  H     0.271453      0.331318     -0.139119 
 H330  H     0.237089      0.364836     -0.224344 
 H331  H     0.175177      0.286404     -0.178616 
 C332  C     0.249110     -0.206946     -0.449215 
 C333  C     0.197593     -0.201765      0.488942 
 C334  C     0.215677     -0.254285      0.431527 
 C335  C     0.285590     -0.312940      0.437996 
 C336  C     0.336043     -0.319063     -0.499805 
 C337  C     0.319583     -0.265064     -0.443128 
 O338  O     0.164653     -0.248495      0.371116 
 C339  C     0.183900     -0.304738      0.314175 
 C340  C     0.123070     -0.284979      0.251615 
 C341  C     0.139069     -0.341341      0.187531 
 C342  C     0.079999     -0.317617      0.123888 
 O343  O     0.372714     -0.270636     -0.383887 
 C344  C     0.357860     -0.212919     -0.327148 
 C345  C     0.421697     -0.234508     -0.266766 
 C346  C     0.408691     -0.179623     -0.201356 
 C347  C     0.465824     -0.208554     -0.138036 
 H348  H     0.299783     -0.356238      0.395127 
 H349  H     0.234609     -0.164408     -0.405903 
 H350  H     0.367876     -0.146541     -0.345540 
 H351  H     0.289171     -0.219779     -0.310045 
 H352  H     0.253266     -0.296046      0.299366 
 H353  H     0.174717     -0.371358      0.331840 
 H354  H     0.413535     -0.302338     -0.252290 
 H355  H     0.490174     -0.227435     -0.284312 
 H356  H     0.053629     -0.290826      0.267123 
 H357  H     0.133090     -0.217843      0.236125 
 H358  H     0.208801     -0.336174      0.172844 
 H359  H     0.128338     -0.409000      0.201527 
 H360  H     0.423427     -0.112197     -0.213949 
 H361  H     0.338704     -0.181681     -0.186909 
 H362  H     0.454363     -0.168221     -0.092285 
 H363  H     0.450510     -0.274855     -0.122648 
 H364  H    -0.463304     -0.205696     -0.149070 
 H365  H     0.094649     -0.357802      0.078658 
 H366  H     0.009593     -0.325555      0.135060 
 H367  H     0.089806     -0.250550      0.107862 
 N368  N    -0.493947      0.490290     -0.179947 
 C369  C    -0.458648      0.407797     -0.204378 
 C370  C     0.415903     -0.498960     -0.209981 
 C371  C    -0.437677     -0.440400     -0.207818 
 C372  C     0.417127     -0.498977     -0.291800 
 H373  H     0.373584      0.449029     -0.190293 
 H374  H     0.388254     -0.438535     -0.190966 
 C375  C    -0.460828      0.404351     -0.286122 
 H376  H    -0.390096      0.401144     -0.184380 
 H377  H    -0.496840      0.354537     -0.181684 
 C378  C    -0.434531     -0.444419     -0.289364 
 H379  H    -0.463772     -0.378191     -0.191103 
 H380  H    -0.370667     -0.446356     -0.184497 
 H381  H    -0.394425      0.390253     -0.305520 
 H382  H     0.494769      0.352953     -0.304888 
 H383  H     0.372683      0.451172     -0.313219 
 H384  H     0.393035     -0.437311     -0.313120 
 H385  H    -0.366436     -0.456643     -0.305883 
 N386  N    -0.492292      0.486456     -0.316503 
 H387  H    -0.455207     -0.382914     -0.313361 
 C388  C    -0.286929     -0.287262      0.435538 
 C389  C    -0.292758     -0.333368      0.498475 
 C390  C    -0.240289     -0.311064     -0.442902 
 C391  C    -0.180987     -0.242317     -0.448487 
 C392  C    -0.175906     -0.195579      0.488814 
 C393  C    -0.228530     -0.217698      0.430032 
 O394  O    -0.247879     -0.358456     -0.382527 
 C395  C    -0.221518     -0.321554     -0.316769 
 C396  C    -0.279054     -0.243947     -0.302095 
 C397  C    -0.253931     -0.198605     -0.233628 
 C398  C    -0.302090     -0.113265     -0.225840 
 O399  O    -0.221219     -0.168861      0.370214 
 C400  C    -0.270718     -0.187618      0.307022 
 C401  C    -0.220042     -0.247074      0.259190 
 C402  C    -0.195659     -0.335323      0.290366 
 C403  C    -0.149915     -0.393061      0.238058 
 H404  H    -0.138179     -0.225307     -0.403937 
 H405  H    -0.329778     -0.304899      0.391298 
 H406  H    -0.336781     -0.212839      0.318478 
 H407  H    -0.281544     -0.125549      0.280419 
 H408  H    -0.230605     -0.371249     -0.276297 
 H409  H    -0.150573     -0.305782     -0.316532 
 H410  H    -0.259541     -0.256688      0.210712 
 H411  H    -0.159107     -0.214549      0.242961 
 H412  H    -0.275558     -0.197064     -0.345380 
 H413  H    -0.348775     -0.264030     -0.300573 
 H414  H    -0.269020     -0.240827     -0.188983 
 H415  H    -0.182115     -0.187356     -0.231180 
 H416  H    -0.152081     -0.327129      0.336856 
 H417  H    -0.255512     -0.368011      0.308452 
 H418  H    -0.133200     -0.455478      0.261734 
 H419  H    -0.192986     -0.404694      0.192038 
 H420  H    -0.088387     -0.363994      0.219810 
 H421  H    -0.280549     -0.081296     -0.177418 
 H422  H    -0.288451     -0.069775     -0.269853 
 H423  H    -0.374024     -0.122205     -0.224169 
loop_  
_geom_bond_atom_site_label_1  
_geom_bond_atom_site_label_2  
Cu0   Cu1 
Cu0   O4 
Cu0   O7 
Cu0   O10 
Cu0   O13 
Cu0   N82 
Cu1   O2 
Cu1   O5 
Cu1   O8 
Cu1   O11 
Cu1   N276 
O2   C3 
C3   O4 
C3   C32 
O5   C6 
C6   O7 
C6   C88 
O8   C9 
C9   O10 
C9   C180 
O11   C12 
C12   O13 
C12   C121 
Cu14   Cu15 
Cu14   O18 
Cu14   O21 
Cu14   O24 
Cu14   O27 
Cu14   N174 
Cu15   O16 
Cu15   O19 
Cu15   O22 
Cu15   O25 
Cu15   N368 
O16   C17 
C17   O18 
C17   C124 
O19   C20 
C20   O21 
C20   C177 
O22   C23 
C23   O24 
C23   C85 
O25   C26 
C26   O27 
C26   C29 
C28   C29 
C28   C33 
C28   H45 
C29   C30 
C30   C31 
C30   O34 
C31   C32 
C31   H44 
C32   C33 
C33   O39 
O34   C35 
C35   C36 
C35   H48 
C35   H49 
C36   C37 
C36   H52 
C36   H53 
C37   C38 
C37   H54 
C37   H55 
C38   H61 
C38   H62 
C38   H63 
O39   C40 
C40   C41 
C40   H46 
C40   H47 
C41   C42 
C41   H50 
C41   H51 
C42   C43 
C42   H56 
C42   H57 
C43   H58 
C43   H59 
C43   H60 
N64   C65 
N64   C66 
N64   C67 
N64   Cu213 
C65   C71 
C65   H72 
C65   H73 
C66   C68 
C66   H69 
C66   H70 
C67   C74 
C67   H75 
C67   H76 
C68   H79 
C68   H80 
C68   N82 
C71   H77 
C71   H78 
C71   N82 
C74   H81 
C74   N82 
C74   H83 
C84   C85 
C84   C89 
C84   H101 
C85   C86 
C86   C87 
C86   O90 
C87   C88 
C87   H100 
C88   C89 
C89   O95 
O90   C91 
C91   C92 
C91   H104 
C91   H105 
C92   C93 
C92   H108 
C92   H109 
C93   C94 
C93   H110 
C93   H111 
C94   H117 
C94   H118 
C94   H119 
O95   C96 
C96   C97 
C96   H102 
C96   H103 
C97   C98 
C97   H106 
C97   H107 
C98   C99 
C98   H112 
C98   H113 
C99   H114 
C99   H115 
C99   H116 
C120   C121 
C120   C125 
C120   H137 
C121   C122 
C122   C123 
C122   O126 
C123   C124 
C123   H136 
C124   C125 
C125   O131 
O126   C127 
C127   C128 
C127   H140 
C127   H141 
C128   C129 
C128   H144 
C128   H145 
C129   C130 
C129   H146 
C129   H147 
C130   H153 
C130   H154 
C130   H155 
O131   C132 
C132   C133 
C132   H138 
C132   H139 
C133   C134 
C133   H142 
C133   H143 
C134   C135 
C134   H148 
C134   H149 
C135   H150 
C135   H151 
C135   H152 
N156   C157 
N156   C158 
N156   C159 
N156   Cu227 
C157   C163 
C157   H164 
C157   H165 
C158   C160 
C158   H161 
C158   H162 
C159   C166 
C159   H167 
C159   H168 
C160   H171 
C160   H172 
C160   N174 
C163   H169 
C163   H170 
C163   N174 
C166   H173 
C166   N174 
C166   H175 
C176   C177 
C176   C181 
C176   H193 
C177   C178 
C178   C179 
C178   O182 
C179   C180 
C179   H192 
C180   C181 
C181   O187 
O182   C183 
C183   C184 
C183   H196 
C183   H197 
C184   C185 
C184   H200 
C184   H201 
C185   C186 
C185   H202 
C185   H203 
C186   H209 
C186   H210 
C186   H211 
O187   C188 
C188   C189 
C188   H194 
C188   H195 
C189   C190 
C189   H198 
C189   H199 
C190   C191 
C190   H204 
C190   H205 
C191   H206 
C191   H207 
C191   H208 
Cu212   Cu213 
Cu212   O216 
Cu212   O219 
Cu212   O222 
Cu212   O225 
Cu212   N294 
Cu213   O214 
Cu213   O217 
Cu213   O220 
Cu213   O223 
O214   C215 
C215   O216 
C215   C241 
O217   C218 
C218   O219 
C218   C297 
O220   C221 
C221   O222 
C221   C392 
O223   C224 
C224   O225 
C224   C333 
Cu226   Cu227 
Cu226   O230 
Cu226   O233 
Cu226   O236 
Cu226   O239 
Cu226   N386 
Cu227   O228 
Cu227   O231 
Cu227   O234 
Cu227   O237 
O228   C229 
C229   O230 
C229   C336 
O231   C232 
C232   O233 
C232   C389 
O234   C235 
C235   O236 
C235   C300 
O237   C238 
C238   O239 
C238   C244 
C240   C241 
C240   C245 
C240   H257 
C241   C242 
C242   C243 
C242   O246 
C243   C244 
C243   H256 
C244   C245 
C245   O251 
O246   C247 
C247   C248 
C247   H260 
C247   H261 
C248   C249 
C248   H264 
C248   H265 
C249   C250 
C249   H266 
C249   H267 
C250   H273 
C250   H274 
C250   H275 
O251   C252 
C252   C253 
C252   H258 
C252   H259 
C253   C254 
C253   H262 
C253   H263 
C254   C255 
C254   H268 
C254   H269 
C255   H270 
C255   H271 
C255   H272 
N276   C277 
N276   C278 
N276   C279 
C277   C283 
C277   H284 
C277   H285 
C278   C280 
C278   H281 
C278   H282 
C279   C286 
C279   H287 
C279   H288 
C280   H291 
C280   H292 
C280   N294 
C283   H289 
C283   H290 
C283   N294 
C286   H293 
C286   N294 
C286   H295 
C296   C297 
C296   C301 
C296   H313 
C297   C298 
C298   C299 
C298   O302 
C299   C300 
C299   H312 
C300   C301 
C301   O307 
O302   C303 
C303   C304 
C303   H316 
C303   H317 
C304   C305 
C304   H320 
C304   H321 
C305   C306 
C305   H322 
C305   H323 
C306   H329 
C306   H330 
C306   H331 
O307   C308 
C308   C309 
C308   H314 
C308   H315 
C309   C310 
C309   H318 
C309   H319 
C310   C311 
C310   H324 
C310   H325 
C311   H326 
C311   H327 
C311   H328 
C332   C333 
C332   C337 
C332   H349 
C333   C334 
C334   C335 
C334   O338 
C335   C336 
C335   H348 
C336   C337 
C337   O343 
O338   C339 
C339   C340 
C339   H352 
C339   H353 
C340   C341 
C340   H356 
C340   H357 
C341   C342 
C341   H358 
C341   H359 
C342   H365 
C342   H366 
C342   H367 
O343   C344 
C344   C345 
C344   H350 
C344   H351 
C345   C346 
C345   H354 
C345   H355 
C346   C347 
C346   H360 
C346   H361 
C347   H362 
C347   H363 
C347   H364 
N368   C369 
N368   C370 
N368   C371 
C369   C375 
C369   H376 
C369   H377 
C370   C372 
C370   H373 
C370   H374 
C371   C378 
C371   H379 
C371   H380 
C372   H383 
C372   H384 
C372   N386 
C375   H381 
C375   H382 
C375   N386 
C378   H385 
C378   N386 
C378   H387 
C388   C389 
C388   C393 
C388   H405 
C389   C390 
C390   C391 
C390   O394 
C391   C392 
C391   H404 
C392   C393 
C393   O399 
O394   C395 
C395   C396 
C395   H408 
C395   H409 
C396   C397 
C396   H412 
C396   H413 
C397   C398 
C397   H414 
C397   H415 
C398   H421 
C398   H422 
C398   H423 
O399   C400 
C400   C401 
C400   H406 
C400   H407 
C401   C402 
C401   H410 
C401   H411 
C402   C403 
C402   H416 
C402   H417 
C403   H418 
C403   H419 
C403   H420 
  
#END  
