data_
_symmetry_cell_setting           triclinic 
_symmetry_space_group_name_H-M   'P 1' 
_symmetry_Int_Tables_number      1 
loop_ 
_symmetry_equiv_pos_site_id 
_symmetry_equiv_pos_as_xyz 
1 x,y,z 
_cell_length_a             16.289522        
_cell_length_b             14.460291        
_cell_length_c             19.117350        
_cell_angle_alpha          91.844844        
_cell_angle_beta           90.889286        
_cell_angle_gamma          89.381222        
loop_  
_atom_site_label   
_atom_site_type_symbol  
_atom_site_fract_x  
_atom_site_fract_y  
_atom_site_fract_z 
 Cu0  Cu    -0.005407      0.010538      0.067106 
 Cu1  Cu    -0.007968     -0.000307     -0.070197 
 O2  O    -0.106363      0.081256     -0.056960 
 C3  C    -0.113764      0.129084     -0.000282 
 O4  O    -0.075147      0.120282      0.057648 
 O5  O     0.073301      0.097662     -0.070354 
 C6  C     0.110836      0.113729     -0.011211 
 O7  O     0.096075      0.079805      0.048005 
 O8  O    -0.078733     -0.112885     -0.060232 
 C9  C    -0.114814     -0.120968     -0.002582 
 O10  O    -0.106228     -0.066314      0.054700 
 O11  O     0.087631     -0.083641     -0.054265 
 C12  C     0.101426     -0.119369      0.005115 
 O13  O     0.059461     -0.102638      0.061825 
 Cu14  Cu     0.490986      0.498200      0.067930 
 Cu15  Cu     0.496209      0.497712     -0.069480 
 O16  O     0.415742     -0.399061     -0.057159 
 C17  C     0.380364     -0.379714     -0.000238 
 O18  O     0.394971     -0.423006      0.055918 
 O19  O    -0.401580     -0.425475     -0.051093 
 C20  C    -0.391710     -0.379323      0.006499 
 O21  O    -0.434988     -0.388567      0.060148 
 O22  O     0.392082      0.418624     -0.052590 
 C23  C     0.383453      0.370462      0.001502 
 O24  O     0.420847      0.385325      0.059409 
 O25  O    -0.433809      0.384157     -0.055741 
 C26  C    -0.395910      0.369962      0.001966 
 O27  O    -0.414694      0.408361      0.059463 
 C28  C    -0.281303      0.296647      0.064248 
 C29  C    -0.327775      0.302112      0.000312 
 C30  C    -0.299471      0.249818     -0.058012 
 C31  C    -0.221914      0.202844     -0.061289 
 C32  C    -0.179499      0.201196      0.003003 
 C33  C    -0.206078      0.250530      0.062490 
 O34  O    -0.358004      0.235084     -0.108506 
 C35  C    -0.397755      0.149716     -0.116499 
 C36  C    -0.419583      0.141593     -0.194101 
 C37  C    -0.351466      0.110863     -0.244642 
 C38  C    -0.282327      0.180705     -0.265735 
 O39  O    -0.167515      0.246105      0.126125 
 C40  C    -0.103258      0.311587      0.143068 
 C41  C    -0.092474      0.326359      0.221527 
 C42  C    -0.175937      0.347980      0.261982 
 C43  C    -0.163256      0.383227      0.338422 
 H44  H    -0.204561      0.155720     -0.105376 
 H45  H    -0.305525      0.326919      0.113963 
 H46  H    -0.044105      0.287564      0.122627 
 H47  H    -0.113831      0.376948      0.116417 
 H48  H    -0.365872      0.088194     -0.096054 
 H49  H    -0.455435      0.160863     -0.088381 
 H50  H    -0.069171      0.260447      0.241778 
 H51  H    -0.048501      0.381700      0.239519 
 H52  H    -0.463714      0.088500     -0.204668 
 H53  H    -0.447483      0.206109     -0.208039 
 H54  H    -0.317567      0.047377     -0.225160 
 H55  H    -0.374990      0.089298     -0.297208 
 H56  H    -0.208009      0.403565      0.237549 
 H57  H    -0.216010      0.285332      0.260782 
 H58  H    -0.138315      0.453656      0.339654 
 H59  H    -0.220820      0.384636      0.366451 
 H60  H    -0.119492      0.336226      0.367219 
 H61  H    -0.299256      0.253616     -0.271729 
 H62  H    -0.237487      0.190500     -0.225783 
 H63  H    -0.250038      0.162556     -0.316114 
 N64  N     0.012342      0.015269      0.317059 
 C65  C     0.068954      0.078694      0.282679 
 C66  C     0.035675     -0.080747      0.295612 
 C67  C    -0.074158      0.035040      0.290829 
 C68  C     0.040481     -0.087964      0.212866 
 H69  H     0.097528     -0.099568      0.318728 
 H70  H    -0.003140     -0.136360      0.316281 
 C71  C     0.052893      0.077632      0.200056 
 H72  H     0.051600      0.149365      0.304047 
 H73  H     0.133050      0.065678      0.303487 
 C74  C    -0.078903      0.013816      0.207572 
 H75  H    -0.112038     -0.007815      0.322371 
 H76  H    -0.088118      0.111567      0.300104 
 H77  H     0.018572      0.140248      0.187725 
 H78  H     0.113951      0.077146      0.174163 
 H79  H     0.106019     -0.099685      0.199355 
 H80  H     0.006004     -0.154162      0.192157 
 H81  H    -0.109613      0.069630      0.180148 
 N82  N     0.003380     -0.005924      0.179326 
 H83  H    -0.115881     -0.045887      0.196536 
 C84  C     0.248273      0.159096      0.034886 
 C85  C     0.179148      0.180695     -0.009087 
 C86  C     0.177295      0.261342     -0.046895 
 C87  C     0.246307      0.320802     -0.049413 
 C88  C     0.313376      0.299035     -0.004403 
 C89  C     0.313403      0.219260      0.036002 
 O90  O     0.114057      0.275673     -0.090516 
 C91  C     0.094903      0.369193     -0.114719 
 C92  C     0.009016      0.414609     -0.089412 
 C93  C    -0.067092      0.353400     -0.098650 
 C94  C    -0.147466      0.407532     -0.075772 
 O95  O     0.382182      0.200543      0.074149 
 C96  C     0.399657      0.100615      0.087933 
 C97  C     0.489898      0.085591      0.067792 
 C98  C    -0.444349      0.141422      0.110296 
 C99  C    -0.444766      0.130501      0.189651 
 H100  H     0.238495      0.384847     -0.075976 
 H101  H     0.241498      0.099524      0.066736 
 H102  H     0.398193      0.078339      0.139172 
 H103  H     0.361006      0.055102      0.050880 
 H104  H     0.145741      0.418085     -0.104628 
 H105  H     0.082539      0.354916     -0.172332 
 H106  H    -0.494905      0.008226      0.067602 
 H107  H     0.499233      0.094445      0.012506 
 H108  H     0.015638      0.438792     -0.033014 
 H109  H    -0.004887      0.482819     -0.117054 
 H110  H    -0.072802      0.334515     -0.155567 
 H111  H    -0.062798      0.293020     -0.064586 
 H112  H    -0.388242      0.121085      0.086682 
 H113  H    -0.453101      0.214292      0.095528 
 H114  H     0.497290      0.150690      0.210429 
 H115  H    -0.430570      0.057172      0.200594 
 H116  H    -0.399337      0.176421      0.218524 
 H117  H    -0.154149      0.470366     -0.103963 
 H118  H    -0.205803      0.372329     -0.092401 
 H119  H    -0.157195      0.424162     -0.019117 
 C120  C     0.251159     -0.320013      0.050274 
 C121  C     0.312112     -0.308231      0.001819 
 C122  C     0.310447     -0.229028     -0.042697 
 C123  C     0.241863     -0.171967     -0.040619 
 C124  C     0.177879     -0.186391      0.010020 
 C125  C     0.184530     -0.259479      0.055407 
 O126  O     0.371732     -0.214566     -0.092987 
 C127  C     0.403459     -0.118253     -0.090642 
 C128  C     0.417969     -0.092575     -0.166124 
 C129  C     0.345499     -0.103453     -0.221795 
 C130  C     0.373500     -0.099360     -0.295821 
 O131  O     0.126297     -0.264703      0.108100 
 C132  C     0.047037     -0.301193      0.085516 
 C133  C     0.067884     -0.406923      0.063921 
 C134  C     0.091582     -0.468514      0.129006 
 C135  C     0.119518      0.432214      0.099346 
 H136  H     0.239586     -0.117621     -0.077672 
 H137  H     0.262654     -0.376074      0.087360 
 H138  H     0.005310     -0.287434      0.132311 
 H139  H     0.018164     -0.264196      0.042325 
 H140  H     0.364110     -0.070707     -0.063880 
 H141  H     0.462128     -0.112790     -0.060771 
 H142  H     0.010144     -0.433600      0.035455 
 H143  H     0.116801     -0.410197      0.026702 
 H144  H     0.438658     -0.022265     -0.160654 
 H145  H     0.469994     -0.134665     -0.176252 
 H146  H     0.303131     -0.165805     -0.213425 
 H147  H     0.304976     -0.041361     -0.218497 
 H148  H     0.135294     -0.434331      0.167874 
 H149  H     0.034579     -0.479858      0.158822 
 H150  H     0.135263      0.381468      0.139151 
 H151  H     0.075363      0.397981      0.061777 
 H152  H     0.174555      0.439648      0.069081 
 H153  H     0.326356     -0.112180     -0.333335 
 H154  H     0.405287     -0.038448     -0.308467 
 H155  H     0.419041     -0.159428     -0.306358 
 N156  N     0.493189      0.473930      0.324218 
 C157  C    -0.450396      0.405026      0.294370 
 C158  C     0.408982      0.446198      0.297382 
 C159  C    -0.483026     -0.432145      0.303500 
 C160  C     0.412693      0.451615      0.214050 
 H161  H     0.400338      0.375802      0.312726 
 H162  H     0.359869      0.493502      0.313900 
 C163  C    -0.445334      0.412600      0.213726 
 H164  H    -0.387108      0.411793      0.314325 
 H165  H    -0.477551      0.340030      0.306927 
 C166  C    -0.491831     -0.427415      0.220504 
 H167  H     0.489093     -0.370290      0.327767 
 H168  H    -0.415268     -0.425340      0.314385 
 H169  H    -0.383184      0.434007      0.205644 
 H170  H    -0.448397      0.347678      0.180241 
 H171  H     0.393550      0.388077      0.188597 
 H172  H     0.362424      0.496492      0.194957 
 H173  H    -0.434138     -0.400736      0.198788 
 N174  N     0.491539      0.480908      0.188213 
 H175  H     0.458340     -0.379684      0.203211 
 C176  C    -0.230886     -0.195717      0.059301 
 C177  C    -0.180321     -0.193837      0.000932 
 C178  C    -0.200220     -0.256637     -0.054183 
 C179  C    -0.267397     -0.318953     -0.051565 
 C180  C    -0.319232     -0.309572      0.005708 
 C181  C    -0.306559     -0.241790      0.057370 
 O182  O    -0.155773     -0.248708     -0.116022 
 C183  C    -0.142881     -0.327765     -0.161994 
 C184  C    -0.097360     -0.298099     -0.230929 
 C185  C    -0.100544     -0.381998     -0.286400 
 C186  C    -0.184684     -0.407317     -0.316612 
 O187  O    -0.361480     -0.235179      0.110910 
 C188  C    -0.371013     -0.166810      0.168852 
 C189  C    -0.457117     -0.159592      0.196096 
 C190  C     0.472897     -0.178176      0.142163 
 C191  C     0.383734     -0.168170      0.166303 
 H192  H    -0.279883     -0.372404     -0.092779 
 H193  H    -0.222990     -0.144961      0.102582 
 H194  H    -0.325560     -0.183746      0.210213 
 H195  H    -0.354328     -0.098821      0.150700 
 H196  H    -0.112203     -0.389521     -0.133395 
 H197  H    -0.205200     -0.349762     -0.179774 
 H198  H    -0.456973     -0.207754      0.240843 
 H199  H    -0.468939     -0.091502      0.225716 
 H200  H    -0.126422     -0.231229     -0.250692 
 H201  H    -0.035374     -0.285957     -0.213684 
 H202  H    -0.060786     -0.363503     -0.330162 
 H203  H    -0.069112     -0.446637     -0.265438 
 H204  H     0.481315     -0.134887      0.098782 
 H205  H     0.477697     -0.250697      0.120572 
 H206  H     0.370760     -0.096910      0.180812 
 H207  H     0.342901     -0.194758      0.126052 
 H208  H     0.363866     -0.209455      0.209485 
 H209  H    -0.221457     -0.425507     -0.270621 
 H210  H    -0.216312     -0.345767     -0.339469 
 H211  H    -0.195893     -0.457738     -0.362654 
 Cu212  Cu     0.013274     -0.010581     -0.435165 
 Cu213  Cu     0.014084     -0.004731      0.431805 
 O214  O    -0.067127      0.109336      0.435554 
 C215  C    -0.085407      0.135158      0.498102 
 O216  O    -0.054188      0.107814     -0.444378 
 O217  O     0.105831      0.088759      0.442737 
 C218  C     0.141797      0.106632     -0.497313 
 O219  O     0.126123      0.068901     -0.439630 
 O220  O    -0.081580     -0.087906      0.438655 
 C221  C    -0.117324     -0.105135      0.493488 
 O222  O    -0.093289     -0.071762     -0.447780 
 O223  O     0.094231     -0.103691      0.435314 
 C224  C     0.109220     -0.143412      0.496337 
 O225  O     0.072005     -0.122841     -0.447754 
 Cu226  Cu    -0.483788     -0.490725     -0.427487 
 Cu227  Cu    -0.489312     -0.496398      0.434856 
 O228  O     0.414344     -0.410637      0.442994 
 C229  C     0.384519     -0.391390     -0.495568 
 O230  O     0.407029     -0.425869     -0.438594 
 O231  O    -0.410158     -0.389470      0.446155 
 C232  C    -0.389359     -0.351374     -0.494669 
 O233  O    -0.424006     -0.366584     -0.436432 
 O234  O     0.429080      0.400850      0.441647 
 C235  C     0.416313      0.362188     -0.498528 
 O236  O     0.458515      0.383116     -0.442577 
 O237  O    -0.406702      0.405973      0.450252 
 C238  C    -0.366411      0.395450     -0.495725 
 O239  O    -0.375166      0.443058     -0.437364 
 C240  C    -0.242767      0.326091     -0.440933 
 C241  C    -0.300695      0.319266     -0.495477 
 C242  C    -0.292151      0.250731      0.450854 
 C243  C    -0.221207      0.194903      0.446603 
 C244  C    -0.160504      0.207362     -0.498948 
 C245  C    -0.171005      0.271401     -0.444843 
 O246  O    -0.348612      0.230768      0.397170 
 C247  C    -0.421741      0.186192      0.419112 
 C248  C    -0.398819      0.082620      0.442548 
 C249  C    -0.354947      0.027476      0.382512 
 C250  C    -0.344679     -0.072099      0.399748 
 O251  O    -0.108002      0.276926     -0.397820 
 C252  C    -0.108257      0.349361     -0.343698 
 C253  C    -0.025744      0.362539     -0.302176 
 C254  C     0.049361      0.341968     -0.347702 
 C255  C     0.055326      0.414113     -0.406074 
 H256  H    -0.203879      0.157272      0.399329 
 H257  H    -0.244134      0.382311     -0.400777 
 H258  H    -0.120686      0.418681     -0.367781 
 H259  H    -0.163539      0.332758     -0.311079 
 H260  H    -0.449461      0.233171      0.459737 
 H261  H    -0.461203      0.179641      0.374351 
 H262  H    -0.023471      0.433072     -0.280752 
 H263  H    -0.028522      0.319551     -0.256754 
 H264  H    -0.360169      0.089899      0.488979 
 H265  H    -0.453658      0.045669      0.458748 
 H266  H    -0.387899      0.038389      0.331928 
 H267  H    -0.295569      0.061535      0.379665 
 H268  H     0.096762      0.335622     -0.307766 
 H269  H     0.047364      0.269694     -0.371021 
 H270  H     0.115019      0.409267     -0.435045 
 H271  H     0.007858      0.409352     -0.447005 
 H272  H     0.050072      0.486383     -0.383923 
 H273  H    -0.406429     -0.107553      0.395878 
 H274  H    -0.303676     -0.116504      0.367983 
 H275  H    -0.320190     -0.073095      0.451515 
 N276  N     0.013298      0.002931     -0.185454 
 C277  C    -0.030647     -0.080360     -0.212640 
 C278  C    -0.021992      0.091102     -0.215032 
 C279  C     0.096626     -0.010834     -0.213493 
 C280  C    -0.030151      0.079807     -0.295806 
 H281  H    -0.079204      0.111820     -0.187804 
 H282  H     0.018368      0.146934     -0.202999 
 C283  C    -0.031021     -0.084979     -0.294937 
 H284  H    -0.000789     -0.143898     -0.190290 
 H285  H    -0.093995     -0.075455     -0.196257 
 C286  C     0.099262     -0.016738     -0.295900 
 H287  H     0.142389      0.046085     -0.198011 
 H288  H     0.122537     -0.075444     -0.191750 
 H289  H    -0.005663     -0.155808     -0.316727 
 H290  H    -0.095892     -0.077027     -0.313743 
 H291  H    -0.095086      0.070224     -0.315570 
 H292  H    -0.002258      0.133099     -0.324840 
 H293  H     0.133086     -0.079428     -0.316224 
 N294  N     0.015146     -0.008216     -0.320825 
 H295  H     0.134391      0.043175     -0.313775 
 C296  C     0.291948      0.294280      0.451101 
 C297  C     0.345781      0.298629     -0.491290 
 C298  C     0.333976      0.238084     -0.433710 
 C299  C     0.263800      0.178868     -0.438034 
 C300  C     0.208969      0.177825     -0.495938 
 C301  C     0.221158      0.237347      0.448020 
 O302  O     0.386815      0.239472     -0.375124 
 C303  C     0.400956      0.155939     -0.334701 
 C304  C     0.371330      0.161688     -0.259203 
 C305  C     0.282070      0.189245     -0.246364 
 C306  C     0.259884      0.286329     -0.265547 
 O307  O     0.155168      0.244126      0.397130 
 C308  C     0.161909      0.311684      0.344500 
 C309  C     0.129579      0.404322      0.376980 
 C310  C     0.123124      0.483813      0.324115 
 C311  C     0.094302     -0.422589      0.349598 
 H312  H     0.252397      0.127841     -0.396522 
 H313  H     0.301797      0.346713      0.405919 
 H314  H     0.226702      0.308652      0.326740 
 H315  H     0.128296      0.294032      0.295042 
 H316  H     0.377633      0.097281     -0.367435 
 H317  H     0.468235      0.141435     -0.330419 
 H318  H     0.069448      0.395996      0.400328 
 H319  H     0.166312      0.436100      0.418555 
 H320  H     0.388838      0.101402     -0.231289 
 H321  H     0.410345      0.217917     -0.230619 
 H322  H     0.242970      0.144927     -0.279883 
 H323  H     0.278565      0.180811     -0.190264 
 H324  H     0.178359      0.486399      0.290632 
 H325  H     0.082964      0.458610      0.282771 
 H326  H     0.078754     -0.389032      0.300095 
 H327  H     0.034059     -0.425194      0.374954 
 H328  H     0.137433     -0.387365      0.383565 
 H329  H     0.194228      0.304330     -0.248463 
 H330  H     0.301465      0.329831     -0.238565 
 H331  H     0.266560      0.303980     -0.321799 
 C332  C     0.308658     -0.257866      0.452981 
 C333  C     0.317355     -0.317009     -0.491449 
 C334  C     0.262218     -0.313117     -0.436197 
 C335  C     0.197206     -0.250648     -0.437809 
 C336  C     0.186776     -0.196312     -0.496174 
 C337  C     0.245088     -0.191183      0.451182 
 O338  O     0.275294     -0.364578     -0.377443 
 C339  C     0.210880     -0.423890     -0.361264 
 C340  C     0.170696     -0.387556     -0.289807 
 C341  C     0.231968     -0.359550     -0.232949 
 C342  C     0.193062     -0.310796     -0.166009 
 O343  O     0.238156     -0.124166      0.399938 
 C344  C     0.303887     -0.108174      0.350510 
 C345  C     0.371860     -0.048487      0.380448 
 C346  C     0.346236      0.055654      0.382682 
 C347  C     0.336374      0.103471      0.314492 
 H348  H     0.152621     -0.239270     -0.394669 
 H349  H     0.356496     -0.264860      0.410798 
 H350  H     0.328657     -0.176661      0.331765 
 H351  H     0.272706     -0.082775      0.305366 
 H352  H     0.169726     -0.437289     -0.407074 
 H353  H     0.236147     -0.495496     -0.353083 
 H354  H     0.390845     -0.070545      0.434056 
 H355  H     0.421906     -0.051322      0.345287 
 H356  H     0.126245     -0.334732     -0.299067 
 H357  H     0.129043     -0.443240     -0.268358 
 H358  H     0.262751     -0.427396     -0.216869 
 H359  H     0.280265     -0.313293     -0.254571 
 H360  H     0.290651      0.057963      0.410543 
 H361  H     0.390404      0.087296      0.416452 
 H362  H     0.394474      0.119205      0.282428 
 H363  H     0.288476      0.069780      0.280295 
 H364  H     0.312113      0.172065      0.324590 
 H365  H     0.157776     -0.239702     -0.180769 
 H366  H     0.146996     -0.359060     -0.140414 
 H367  H     0.245969     -0.300151     -0.127731 
 N368  N    -0.496583     -0.496776     -0.179665 
 C369  C    -0.459297     -0.407602     -0.198021 
 C370  C    -0.444915      0.427835     -0.214273 
 C371  C     0.420642      0.499159     -0.210311 
 C372  C    -0.438675      0.437227     -0.293707 
 H373  H    -0.382179      0.430994     -0.191735 
 H374  H    -0.472033      0.359611     -0.203051 
 C375  C    -0.459731     -0.395269     -0.281092 
 H376  H    -0.494682     -0.351779     -0.173373 
 H377  H    -0.396276     -0.406365     -0.178121 
 C378  C     0.425086     -0.499995     -0.292670 
 H379  H     0.379545      0.444422     -0.193677 
 H380  H     0.392387     -0.436138     -0.196184 
 H381  H    -0.498588     -0.339064     -0.296387 
 H382  H    -0.394206     -0.384230     -0.304034 
 H383  H    -0.375541      0.438393     -0.311430 
 H384  H    -0.459870      0.369956     -0.315434 
 H385  H     0.373280     -0.462193     -0.315978 
 N386  N    -0.493309     -0.478793     -0.317025 
 H387  H     0.412009      0.426056     -0.317637 
 C388  C    -0.272481     -0.285311      0.441320 
 C389  C    -0.318032     -0.285726     -0.499235 
 C390  C    -0.303854     -0.222948     -0.443812 
 C391  C    -0.236595     -0.162509     -0.449989 
 C392  C    -0.185279     -0.169816      0.491939 
 C393  C    -0.200952     -0.231578      0.437160 
 O394  O    -0.346502     -0.225604     -0.383227 
 C395  C    -0.386593     -0.139927     -0.361437 
 C396  C    -0.399767     -0.134251     -0.280470 
 C397  C    -0.325489     -0.127353     -0.230761 
 C398  C    -0.349284     -0.116378     -0.156284 
 O399  O    -0.155872     -0.229757      0.377251 
 C400  C    -0.108359     -0.310960      0.363693 
 C401  C    -0.114203     -0.330533      0.283630 
 C402  C    -0.199460     -0.358382      0.254509 
 C403  C    -0.196817     -0.394242      0.178823 
 H404  H    -0.214393     -0.117522     -0.406252 
 H405  H    -0.283703     -0.339024      0.401952 
 H406  H    -0.043974     -0.290745      0.375702 
 H407  H    -0.134214     -0.366032      0.394822 
 H408  H    -0.350482     -0.079755     -0.377684 
 H409  H    -0.444600     -0.145365     -0.391533 
 H410  H    -0.090118     -0.269153      0.258769 
 H411  H    -0.073313     -0.382210      0.263429 
 H412  H    -0.447078     -0.076328     -0.274210 
 H413  H    -0.437198     -0.193059     -0.265992 
 H414  H    -0.290431     -0.192774     -0.234268 
 H415  H    -0.284001     -0.076251     -0.251321 
 H416  H    -0.228542     -0.405760      0.292481 
 H417  H    -0.238972     -0.297951      0.259926 
 H418  H    -0.182484     -0.340013      0.140596 
 H419  H    -0.158166     -0.456221      0.164931 
 H420  H    -0.259580     -0.412452      0.158570 
 H421  H    -0.384546     -0.051593     -0.146894 
 H422  H    -0.391165     -0.168475     -0.138320 
 H423  H    -0.300904     -0.116794     -0.117776 
loop_  
_geom_bond_atom_site_label_1  
_geom_bond_atom_site_label_2  
Cu0   Cu1 
Cu0   O4 
Cu0   O7 
Cu0   O10 
Cu0   O13 
Cu0   N82 
Cu1   O2 
Cu1   O5 
Cu1   O8 
Cu1   O11 
Cu1   N276 
O2   C3 
C3   O4 
C3   C32 
O5   C6 
C6   O7 
C6   C85 
O8   C9 
C9   O10 
C9   C177 
O11   C12 
C12   O13 
C12   C124 
Cu14   Cu15 
Cu14   O18 
Cu14   O21 
Cu14   O24 
Cu14   O27 
Cu14   N174 
Cu15   O16 
Cu15   O19 
Cu15   O22 
Cu15   O25 
Cu15   N368 
O16   C17 
C17   O18 
C17   C121 
O19   C20 
C20   O21 
C20   C180 
O22   C23 
C23   O24 
C23   C88 
O25   C26 
C26   O27 
C26   C29 
C28   C29 
C28   C33 
C28   H45 
C29   C30 
C30   C31 
C30   O34 
C31   C32 
C31   H44 
C32   C33 
C33   O39 
O34   C35 
C35   C36 
C35   H48 
C35   H49 
C36   C37 
C36   H52 
C36   H53 
C37   C38 
C37   H54 
C37   H55 
C38   H61 
C38   H62 
C38   H63 
O39   C40 
C40   C41 
C40   H46 
C40   H47 
C41   C42 
C41   H50 
C41   H51 
C42   C43 
C42   H56 
C42   H57 
C43   H58 
C43   H59 
C43   H60 
N64   C65 
N64   C66 
N64   C67 
N64   Cu213 
C65   C71 
C65   H72 
C65   H73 
C66   C68 
C66   H69 
C66   H70 
C67   C74 
C67   H75 
C67   H76 
C68   H79 
C68   H80 
C68   N82 
C71   H77 
C71   H78 
C71   N82 
C74   H81 
C74   N82 
C74   H83 
C84   C85 
C84   C89 
C84   H101 
C85   C86 
C86   C87 
C86   O90 
C87   C88 
C87   H100 
C88   C89 
C89   O95 
O90   C91 
C91   C92 
C91   H104 
C91   H105 
C92   C93 
C92   H108 
C92   H109 
C93   C94 
C93   H110 
C93   H111 
C94   H117 
C94   H118 
C94   H119 
O95   C96 
C96   C97 
C96   H102 
C96   H103 
C97   C98 
C97   H106 
C97   H107 
C98   C99 
C98   H112 
C98   H113 
C99   H114 
C99   H115 
C99   H116 
C120   C121 
C120   C125 
C120   H137 
C121   C122 
C122   C123 
C122   O126 
C123   C124 
C123   H136 
C124   C125 
C125   O131 
O126   C127 
C127   C128 
C127   H140 
C127   H141 
C128   C129 
C128   H144 
C128   H145 
C129   C130 
C129   H146 
C129   H147 
C130   H153 
C130   H154 
C130   H155 
O131   C132 
C132   C133 
C132   H138 
C132   H139 
C133   C134 
C133   H142 
C133   H143 
C134   C135 
C134   H148 
C134   H149 
C135   H150 
C135   H151 
C135   H152 
N156   C157 
N156   C158 
N156   C159 
N156   Cu227 
C157   C163 
C157   H164 
C157   H165 
C158   C160 
C158   H161 
C158   H162 
C159   C166 
C159   H167 
C159   H168 
C160   H171 
C160   H172 
C160   N174 
C163   H169 
C163   H170 
C163   N174 
C166   H173 
C166   N174 
C166   H175 
C176   C177 
C176   C181 
C176   H193 
C177   C178 
C178   C179 
C178   O182 
C179   C180 
C179   H192 
C180   C181 
C181   O187 
O182   C183 
C183   C184 
C183   H196 
C183   H197 
C184   C185 
C184   H200 
C184   H201 
C185   C186 
C185   H202 
C185   H203 
C186   H209 
C186   H210 
C186   H211 
O187   C188 
C188   C189 
C188   H194 
C188   H195 
C189   C190 
C189   H198 
C189   H199 
C190   C191 
C190   H204 
C190   H205 
C191   H206 
C191   H207 
C191   H208 
Cu212   Cu213 
Cu212   O216 
Cu212   O219 
Cu212   O222 
Cu212   O225 
Cu212   N294 
Cu213   O214 
Cu213   O217 
Cu213   O220 
Cu213   O223 
O214   C215 
C215   O216 
C215   C244 
O217   C218 
C218   O219 
C218   C300 
O220   C221 
C221   O222 
C221   C392 
O223   C224 
C224   O225 
C224   C336 
Cu226   Cu227 
Cu226   O230 
Cu226   O233 
Cu226   O236 
Cu226   O239 
Cu226   N386 
Cu227   O228 
Cu227   O231 
Cu227   O234 
Cu227   O237 
O228   C229 
C229   O230 
C229   C333 
O231   C232 
C232   O233 
C232   C389 
O234   C235 
C235   O236 
C235   C297 
O237   C238 
C238   O239 
C238   C241 
C240   C241 
C240   C245 
C240   H257 
C241   C242 
C242   C243 
C242   O246 
C243   C244 
C243   H256 
C244   C245 
C245   O251 
O246   C247 
C247   C248 
C247   H260 
C247   H261 
C248   C249 
C248   H264 
C248   H265 
C249   C250 
C249   H266 
C249   H267 
C250   H273 
C250   H274 
C250   H275 
O251   C252 
C252   C253 
C252   H258 
C252   H259 
C253   C254 
C253   H262 
C253   H263 
C254   C255 
C254   H268 
C254   H269 
C255   H270 
C255   H271 
C255   H272 
N276   C277 
N276   C278 
N276   C279 
C277   C283 
C277   H284 
C277   H285 
C278   C280 
C278   H281 
C278   H282 
C279   C286 
C279   H287 
C279   H288 
C280   H291 
C280   H292 
C280   N294 
C283   H289 
C283   H290 
C283   N294 
C286   H293 
C286   N294 
C286   H295 
C296   C297 
C296   C301 
C296   H313 
C297   C298 
C298   C299 
C298   O302 
C299   C300 
C299   H312 
C300   C301 
C301   O307 
O302   C303 
C303   C304 
C303   H316 
C303   H317 
C304   C305 
C304   H320 
C304   H321 
C305   C306 
C305   H322 
C305   H323 
C306   H329 
C306   H330 
C306   H331 
O307   C308 
C308   C309 
C308   H314 
C308   H315 
C309   C310 
C309   H318 
C309   H319 
C310   C311 
C310   H324 
C310   H325 
C311   H326 
C311   H327 
C311   H328 
C332   C333 
C332   C337 
C332   H349 
C333   C334 
C334   C335 
C334   O338 
C335   C336 
C335   H348 
C336   C337 
C337   O343 
O338   C339 
C339   C340 
C339   H352 
C339   H353 
C340   C341 
C340   H356 
C340   H357 
C341   C342 
C341   H358 
C341   H359 
C342   H365 
C342   H366 
C342   H367 
O343   C344 
C344   C345 
C344   H350 
C344   H351 
C345   C346 
C345   H354 
C345   H355 
C346   C347 
C346   H360 
C346   H361 
C347   H362 
C347   H363 
C347   H364 
N368   C369 
N368   C370 
N368   C371 
C369   C375 
C369   H376 
C369   H377 
C370   C372 
C370   H373 
C370   H374 
C371   C378 
C371   H379 
C371   H380 
C372   H383 
C372   H384 
C372   N386 
C375   H381 
C375   H382 
C375   N386 
C378   H385 
C378   N386 
C378   H387 
C388   C389 
C388   C393 
C388   H405 
C389   C390 
C390   C391 
C390   O394 
C391   C392 
C391   H404 
C392   C393 
C393   O399 
O394   C395 
C395   C396 
C395   H408 
C395   H409 
C396   C397 
C396   H412 
C396   H413 
C397   C398 
C397   H414 
C397   H415 
C398   H421 
C398   H422 
C398   H423 
O399   C400 
C400   C401 
C400   H406 
C400   H407 
C401   C402 
C401   H410 
C401   H411 
C402   C403 
C402   H416 
C402   H417 
C403   H418 
C403   H419 
C403   H420 
  
#END  
