data_
_symmetry_cell_setting           triclinic 
_symmetry_space_group_name_H-M   'P 1' 
_symmetry_Int_Tables_number      1 
loop_ 
_symmetry_equiv_pos_site_id 
_symmetry_equiv_pos_as_xyz 
1 x,y,z 
_cell_length_a             15.774505        
_cell_length_b             15.091877        
_cell_length_c             19.123009        
_cell_angle_alpha          88.856334        
_cell_angle_beta           90.989004        
_cell_angle_gamma          90.170575        
loop_  
_atom_site_label   
_atom_site_type_symbol  
_atom_site_fract_x  
_atom_site_fract_y  
_atom_site_fract_z 
 Cu0  Cu     0.005269     -0.003758      0.067595 
 Cu1  Cu     0.004507     -0.005744     -0.068448 
 O2  O    -0.096738      0.074567     -0.060180 
 C3  C    -0.113940      0.112321     -0.003128 
 O4  O    -0.075075      0.097620      0.055006 
 O5  O     0.084618      0.096786     -0.062025 
 C6  C     0.122452      0.112655     -0.004254 
 O7  O     0.102891      0.078550      0.054983 
 O8  O    -0.071501     -0.110967     -0.056559 
 C9  C    -0.110333     -0.123565      0.000719 
 O10  O    -0.093118     -0.085657      0.058214 
 O11  O     0.105449     -0.084209     -0.056059 
 C12  C     0.123212     -0.120307      0.003182 
 O13  O     0.085416     -0.106078      0.060326 
 Cu14  Cu    -0.494996     -0.499867      0.072539 
 Cu15  Cu    -0.497734      0.498209     -0.063490 
 O16  O     0.422412     -0.399647     -0.055350 
 C17  C     0.384999     -0.386193      0.002073 
 O18  O     0.403199     -0.422887      0.060948 
 O19  O    -0.399152     -0.419911     -0.055233 
 C20  C    -0.381235     -0.382008      0.002117 
 O21  O    -0.420011     -0.393883      0.059536 
 O22  O     0.405073      0.415528     -0.049872 
 C23  C     0.387948      0.379771      0.009353 
 O24  O     0.426135      0.396444      0.066800 
 O25  O    -0.417075      0.397017     -0.051386 
 C26  C    -0.377153      0.383085      0.006413 
 O27  O    -0.393495      0.421124      0.063542 
 C28  C    -0.194437      0.226946      0.059644 
 C29  C    -0.184193      0.180427     -0.002385 
 C30  C    -0.237020      0.200136     -0.060688 
 C31  C    -0.296242      0.269182     -0.056706 
 C32  C    -0.306507      0.315525      0.005319 
 C33  C    -0.253625      0.295959      0.063538 
 O34  O    -0.229770      0.152675     -0.120671 
 C35  C    -0.300534      0.152339     -0.169010 
 C36  C    -0.286670      0.080618     -0.222025 
 C37  C    -0.362363      0.066448     -0.272002 
 C38  C    -0.348916     -0.011175     -0.321033 
 O39  O    -0.261683      0.343084      0.123544 
 C40  C    -0.189341      0.349504      0.169821 
 C41  C    -0.205408      0.424042      0.220035 
 C42  C    -0.129144      0.446590      0.267333 
 C43  C    -0.145821     -0.473568      0.313440 
 H44  H    -0.335486      0.286369     -0.102503 
 H45  H    -0.155572      0.210200      0.105697 
 H46  H    -0.180029      0.286270      0.198682 
 H47  H    -0.132397      0.363678      0.138988 
 H48  H    -0.359088      0.138892     -0.140139 
 H49  H    -0.306156      0.217582     -0.195524 
 H50  H    -0.223898      0.483825      0.189508 
 H51  H    -0.259496      0.406070      0.253071 
 H52  H    -0.230546      0.097635     -0.252933 
 H53  H    -0.272781      0.017752     -0.193902 
 H54  H    -0.419867      0.054503     -0.241358 
 H55  H    -0.374038      0.127495     -0.303223 
 H56  H    -0.112653      0.388542      0.300638 
 H57  H    -0.073575      0.460333      0.234762 
 H58  H    -0.089539     -0.457311      0.345296 
 H59  H    -0.162215     -0.414308      0.281784 
 H60  H    -0.198540     -0.486575      0.349126 
 H61  H    -0.405159     -0.021602     -0.354477 
 H62  H    -0.294522      0.000707     -0.355230 
 H63  H    -0.336972     -0.073317     -0.291631 
 N64  N     0.009577      0.007113      0.318941 
 C65  C     0.095293     -0.012876      0.293199 
 C66  C    -0.049158     -0.061934      0.292918 
 C67  C    -0.015826      0.093985      0.288101 
 C68  C    -0.050279     -0.063711      0.211229 
 H69  H    -0.029445     -0.126614      0.315333 
 H70  H    -0.113222     -0.049777      0.312350 
 C71  C     0.094922     -0.015758      0.211363 
 H72  H     0.140038      0.037789      0.312390 
 H73  H     0.116711     -0.076739      0.316040 
 C74  C    -0.017012      0.091176      0.206379 
 H75  H    -0.078701      0.112105      0.307262 
 H76  H     0.028678      0.145142      0.306907 
 H77  H     0.139954      0.033124      0.189628 
 H78  H     0.115573     -0.081295      0.193806 
 H79  H    -0.032840     -0.129816      0.192758 
 H80  H    -0.114611     -0.049740      0.190387 
 H81  H     0.025502      0.142094      0.184024 
 N82  N     0.009079      0.002898      0.182179 
 H83  H    -0.081295      0.105711      0.185807 
 C84  C     0.221714      0.206654      0.062601 
 C85  C     0.195193      0.177573     -0.003325 
 C86  C     0.233539      0.212285     -0.063850 
 C87  C     0.292297      0.281645     -0.057122 
 C88  C     0.317908      0.311701      0.008752 
 C89  C     0.280433      0.276101      0.069384 
 O90  O     0.215379      0.178436     -0.128481 
 C91  C     0.278832      0.189788     -0.181325 
 C92  C     0.264904      0.121850     -0.237876 
 C93  C     0.331714      0.124273     -0.295373 
 C94  C     0.308241      0.063636     -0.356065 
 O95  O     0.299463      0.309125      0.134163 
 C96  C     0.238210      0.294260      0.188269 
 C97  C     0.248128      0.364467      0.243485 
 C98  C     0.177072      0.363899      0.297392 
 C99  C     0.188223      0.436847      0.351447 
 H100  H     0.319800      0.311297     -0.104070 
 H101  H     0.194348      0.176700      0.109502 
 H102  H     0.173498      0.297517      0.166055 
 H103  H     0.247978      0.227526      0.211275 
 H104  H     0.274408      0.257669     -0.203138 
 H105  H     0.342696      0.181337     -0.158318 
 H106  H     0.309336      0.354792      0.270887 
 H107  H     0.250117      0.430303      0.217628 
 H108  H     0.264074      0.055043     -0.213580 
 H109  H     0.202055      0.132290     -0.262132 
 H110  H     0.339699      0.192495     -0.315704 
 H111  H     0.393700      0.104533     -0.272796 
 H112  H     0.115352      0.372135      0.270264 
 H113  H     0.174845      0.298848      0.324402 
 H114  H     0.137275      0.434675      0.389867 
 H115  H     0.248623      0.429856      0.380518 
 H116  H     0.187864     -0.497184      0.326175 
 H117  H     0.357035      0.064949     -0.396323 
 H118  H     0.300285     -0.005156     -0.337697 
 H119  H     0.248223      0.083988     -0.381546 
 C120  C     0.336389     -0.232263     -0.019512 
 C121  C     0.315462     -0.318960      0.000629 
 C122  C     0.233307     -0.341360      0.021834 
 C123  C     0.171969     -0.274362      0.025616 
 C124  C     0.192872     -0.187561      0.005455 
 C125  C     0.275253     -0.165185     -0.015352 
 O126  O     0.216540     -0.428766      0.036710 
 C127  C     0.130320     -0.454177      0.048529 
 C128  C     0.124663      0.445469      0.051104 
 C129  C     0.035982      0.411036      0.069747 
 C130  C     0.025781      0.311001      0.060310 
 O131  O     0.293028     -0.077896     -0.029753 
 C132  C     0.379575     -0.053890     -0.042078 
 C133  C     0.386361      0.046323     -0.045326 
 C134  C     0.473632      0.080093     -0.068739 
 C135  C     0.486779      0.179483     -0.057278 
 H136  H     0.107437     -0.289299      0.042198 
 H137  H     0.400947     -0.217620     -0.036242 
 H138  H     0.420694     -0.080683      0.000431 
 H139  H     0.399048     -0.082617     -0.091675 
 H140  H     0.110243     -0.426409      0.098297 
 H141  H     0.089130     -0.427353      0.006081 
 H142  H     0.337044      0.071912     -0.081505 
 H143  H     0.371824      0.072923      0.006366 
 H144  H     0.143089      0.419373      0.000141 
 H145  H     0.171375      0.419639      0.089624 
 H146  H     0.022347      0.427745      0.124194 
 H147  H    -0.011979      0.445953      0.037207 
 H148  H    -0.476220      0.042857     -0.040452 
 H149  H     0.481792      0.065635     -0.124429 
 H150  H    -0.448088      0.199687     -0.068561 
 H151  H     0.445004      0.220239     -0.090993 
 H152  H     0.474756      0.197202     -0.002898 
 H153  H    -0.039477      0.289599      0.069831 
 H154  H     0.041121      0.291763      0.006883 
 H155  H     0.066877      0.272798      0.096443 
 N156  N    -0.494182     -0.478933      0.321386 
 C157  C    -0.410557      0.493025      0.296092 
 C158  C     0.441104      0.458997      0.294471 
 C159  C     0.487334     -0.389798      0.291348 
 C160  C     0.442485      0.456250      0.212995 
 H161  H     0.453138      0.392268      0.316964 
 H162  H     0.378355      0.480095      0.312388 
 C163  C    -0.409942      0.492877      0.214396 
 H164  H    -0.361182     -0.462392      0.317036 
 H165  H    -0.396458      0.426107      0.317210 
 C166  C     0.486311     -0.391690      0.209513 
 H167  H     0.425815     -0.367013      0.310691 
 H168  H    -0.464366     -0.342874      0.310709 
 H169  H    -0.361871     -0.460655      0.193924 
 H170  H    -0.393634      0.426436      0.195925 
 H171  H     0.457254      0.388614      0.196149 
 H172  H     0.380030      0.473849      0.190128 
 H173  H    -0.467444     -0.344079      0.187794 
 N174  N    -0.493640     -0.481563      0.184941 
 H175  H     0.423561     -0.371915      0.188328 
 C176  C    -0.322577     -0.235120      0.034073 
 C177  C    -0.309491     -0.316635      0.002391 
 C178  C    -0.232298     -0.336078     -0.029362 
 C179  C    -0.168419     -0.271035     -0.031638 
 C180  C    -0.181587     -0.189504      0.000057 
 C181  C    -0.258850     -0.170037      0.031527 
 O182  O    -0.222840     -0.419394     -0.055379 
 C183  C    -0.140857     -0.447005     -0.077428 
 C184  C    -0.143587      0.453322     -0.087787 
 C185  C    -0.060736      0.416384     -0.116466 
 C186  C    -0.062302      0.315654     -0.125537 
 O187  O    -0.268441     -0.086704      0.057327 
 C188  C    -0.351402     -0.058216      0.075825 
 C189  C    -0.348271      0.041180      0.087160 
 C190  C    -0.432951      0.078127      0.111907 
 C191  C    -0.429826      0.177099      0.128532 
 H192  H    -0.108102     -0.284000     -0.056662 
 H193  H    -0.382838     -0.222080      0.059166 
 H194  H    -0.397152     -0.073882      0.033617 
 H195  H    -0.370436     -0.094000      0.123859 
 H196  H    -0.125395     -0.411473     -0.126489 
 H197  H    -0.092603     -0.430392     -0.037401 
 H198  H    -0.297732      0.056476      0.125593 
 H199  H    -0.330547      0.075370      0.038083 
 H200  H    -0.157336      0.419904     -0.037471 
 H201  H    -0.196707      0.436717     -0.123404 
 H202  H    -0.047747      0.449432     -0.166900 
 H203  H    -0.007406      0.433922     -0.081535 
 H204  H    -0.482536      0.066771      0.072029 
 H205  H    -0.452861      0.039536      0.158050 
 H206  H    -0.491652      0.201153      0.145643 
 H207  H    -0.382861      0.191224      0.169938 
 H208  H    -0.412922      0.216920      0.082187 
 H209  H    -0.002110      0.291343     -0.145882 
 H210  H    -0.072436      0.280974     -0.075378 
 H211  H    -0.113357      0.295369     -0.161650 
 Cu212  Cu    -0.004795      0.001954     -0.431216 
 Cu213  Cu    -0.005385      0.007829      0.432671 
 O214  O    -0.086829      0.106654      0.438812 
 C215  C    -0.123578      0.120543      0.496326 
 O216  O    -0.104021      0.083581     -0.444994 
 O217  O     0.091527      0.092439      0.447181 
 C218  C     0.107904      0.127439     -0.493785 
 O219  O     0.072117      0.106479     -0.436685 
 O220  O    -0.104173     -0.075647      0.442824 
 C221  C    -0.121145     -0.113524     -0.498914 
 O222  O    -0.082823     -0.100571     -0.440796 
 O223  O     0.074958     -0.093261      0.442765 
 C224  C     0.111783     -0.113361     -0.499312 
 O225  O     0.094955     -0.079182     -0.440650 
 Cu226  Cu     0.497695     -0.497025     -0.429053 
 Cu227  Cu     0.496340     -0.491388      0.434754 
 O228  O     0.400937     -0.405645      0.445243 
 C229  C     0.384658     -0.371989     -0.495815 
 O230  O     0.422250     -0.392088     -0.438199 
 O231  O    -0.420458     -0.393605      0.443234 
 C232  C    -0.382029     -0.381511     -0.498577 
 O233  O    -0.399560     -0.419230     -0.440375 
 O234  O     0.414421      0.408757      0.442830 
 C235  C     0.378672      0.389585     -0.499680 
 O236  O     0.396462      0.424465     -0.440914 
 O237  O    -0.409396      0.421535      0.446072 
 C238  C    -0.391420      0.383387     -0.495459 
 O239  O    -0.427066      0.398966     -0.437751 
 C240  C    -0.297572      0.283904      0.438712 
 C241  C    -0.322844      0.314468     -0.496182 
 C242  C    -0.283710      0.281481     -0.434511 
 C243  C    -0.221228      0.216059     -0.438339 
 C244  C    -0.195181      0.186216      0.496544 
 C245  C    -0.234849      0.218754      0.434782 
 O246  O    -0.305383      0.311428     -0.370287 
 C247  C    -0.237080      0.350452     -0.330972 
 C248  C    -0.257397      0.447149     -0.318075 
 C249  C    -0.181107     -0.497080     -0.294138 
 C250  C    -0.203176     -0.399755     -0.281913 
 O251  O    -0.212062      0.190980      0.370160 
 C252  C    -0.278369      0.152040      0.328246 
 C253  C    -0.257036      0.054547      0.320126 
 C254  C    -0.330611     -0.002481      0.292808 
 C255  C    -0.306813     -0.100095      0.284256 
 H256  H    -0.192455      0.190417     -0.389757 
 H257  H    -0.325973      0.309987      0.390156 
 H258  H    -0.340711      0.159827      0.352401 
 H259  H    -0.280950      0.187103      0.277197 
 H260  H    -0.228627      0.312690     -0.281490 
 H261  H    -0.178085      0.345504     -0.360335 
 H262  H    -0.204167      0.049949      0.283742 
 H263  H    -0.234197      0.026530      0.370699 
 H264  H    -0.284670      0.477383     -0.366346 
 H265  H    -0.306322      0.449866     -0.277994 
 H266  H    -0.154003      0.473498     -0.245746 
 H267  H    -0.131349      0.499774     -0.333635 
 H268  H    -0.384042      0.001872      0.328798 
 H269  H    -0.353010      0.025126      0.242257 
 H270  H    -0.361517     -0.139116      0.266022 
 H271  H    -0.256177     -0.107438      0.246042 
 H272  H    -0.284341     -0.129954      0.334111 
 H273  H    -0.146620     -0.361676     -0.266491 
 H274  H    -0.230038     -0.368097     -0.329604 
 H275  H    -0.249781     -0.393474     -0.240249 
 N276  N    -0.000364     -0.018187     -0.181424 
 C277  C     0.071706      0.032976     -0.209441 
 C278  C     0.004513     -0.109378     -0.208181 
 C279  C    -0.079509      0.022479     -0.208862 
 C280  C     0.002358     -0.108170     -0.290083 
 H281  H     0.063078     -0.140907     -0.187656 
 H282  H    -0.048840     -0.148635     -0.187415 
 C283  C     0.069427      0.034243     -0.291036 
 H284  H     0.068929      0.101323     -0.190279 
 H285  H     0.131134      0.003427     -0.188835 
 C286  C    -0.081944      0.023590     -0.290586 
 H287  H    -0.133598     -0.015097     -0.187592 
 H288  H    -0.084042      0.090671     -0.189605 
 H289  H     0.065313      0.103215     -0.310806 
 H290  H     0.127986      0.005743     -0.311714 
 H291  H     0.059938     -0.138939     -0.310578 
 H292  H    -0.051944     -0.146963     -0.310007 
 H293  H    -0.087764      0.092241     -0.310942 
 N294  N    -0.004136     -0.016191     -0.317989 
 H295  H    -0.137407     -0.013317     -0.310650 
 C296  C     0.255050      0.319571     -0.442759 
 C297  C     0.308860      0.321476     -0.499934 
 C298  C     0.297721      0.260187      0.446476 
 C299  C     0.229726      0.200161      0.449420 
 C300  C     0.176700      0.196974     -0.492764 
 C301  C     0.190334      0.255742     -0.437369 
 O302  O     0.353675      0.258993      0.392710 
 C303  C     0.357725      0.178719      0.354400 
 C304  C     0.437298      0.179422      0.311247 
 C305  C     0.452982      0.090117      0.276949 
 C306  C     0.384832      0.063841      0.222774 
 O307  O     0.140629      0.251051     -0.379289 
 C308  C     0.166738      0.300656     -0.319107 
 C309  C     0.131830      0.394621     -0.323371 
 C310  C     0.047144      0.403180     -0.286227 
 C311  C    -0.019554      0.335365     -0.309472 
 H312  H     0.218754      0.154174      0.406812 
 H313  H     0.264353      0.368928     -0.402288 
 H314  H     0.142260      0.265626     -0.272610 
 H315  H     0.236223      0.300411     -0.313312 
 H316  H     0.358406      0.121525      0.391194 
 H317  H     0.301010      0.173921      0.320344 
 H318  H     0.177846      0.440423     -0.299364 
 H319  H     0.124116      0.416997     -0.378311 
 H320  H     0.433486      0.232277      0.270737 
 H321  H     0.492191      0.195777      0.345079 
 H322  H    -0.484762      0.093463      0.252324 
 H323  H     0.458297      0.037872      0.317822 
 H324  H     0.058948      0.395636     -0.229550 
 H325  H     0.022490      0.470780     -0.294845 
 H326  H     0.001278      0.266793     -0.299605 
 H327  H    -0.078203      0.343781     -0.280489 
 H328  H    -0.034187      0.342519     -0.365679 
 H329  H     0.400510      0.000566      0.198675 
 H330  H     0.322294      0.055678      0.246516 
 H331  H     0.378799      0.113937      0.180437 
 C332  C     0.237991     -0.184634     -0.442012 
 C333  C     0.181517     -0.181587     -0.499422 
 C334  C     0.190546     -0.240839      0.445263 
 C335  C     0.257550     -0.302041      0.447731 
 C336  C     0.314179     -0.304766     -0.495057 
 C337  C     0.304973     -0.245898     -0.439621 
 O338  O     0.133331     -0.237004      0.390446 
 C339  C     0.131390     -0.306739      0.340562 
 C340  C     0.060583     -0.286956      0.287615 
 C341  C     0.049884     -0.357858      0.231662 
 C342  C    -0.018690     -0.334560      0.176402 
 O343  O     0.361957     -0.251241     -0.384770 
 C344  C     0.370137     -0.178837     -0.337832 
 C345  C     0.441650     -0.200553     -0.286030 
 C346  C     0.459729     -0.126868     -0.233612 
 C347  C    -0.470845     -0.151634     -0.179501 
 H348  H     0.265515     -0.348329      0.405171 
 H349  H     0.230065     -0.138839     -0.399167 
 H350  H     0.384443     -0.118095     -0.368356 
 H351  H     0.310259     -0.169614     -0.310091 
 H352  H     0.192747     -0.309962      0.314044 
 H353  H     0.120121     -0.370288      0.368292 
 H354  H     0.425861     -0.262025     -0.257060 
 H355  H     0.499875     -0.214035     -0.315007 
 H356  H     0.000346     -0.279731      0.315289 
 H357  H     0.073425     -0.222731      0.261600 
 H358  H     0.110985     -0.367321      0.205901 
 H359  H     0.034445     -0.421757      0.257225 
 H360  H     0.478248     -0.066130     -0.262365 
 H361  H     0.400768     -0.110824     -0.206682 
 H362  H    -0.457420     -0.096685     -0.144085 
 H363  H    -0.489453     -0.209344     -0.147198 
 H364  H    -0.411119     -0.168242     -0.204892 
 H365  H    -0.027493     -0.388175      0.138896 
 H366  H    -0.080332     -0.323086      0.200520 
 H367  H    -0.002121     -0.274190      0.146434 
 N368  N     0.489293     -0.499698     -0.177990 
 C369  C    -0.487499      0.412351     -0.204635 
 C370  C     0.402980     -0.478030     -0.204842 
 C371  C    -0.451129     -0.433280     -0.206991 
 C372  C     0.399678     -0.478210     -0.286795 
 H373  H     0.357579      0.473627     -0.182883 
 H374  H     0.384630     -0.412551     -0.185578 
 C375  C    -0.491530      0.412532     -0.286411 
 H376  H    -0.423020      0.395381     -0.185720 
 H377  H     0.469483      0.361737     -0.182506 
 C378  C    -0.455269     -0.431991     -0.288703 
 H379  H    -0.466541     -0.367559     -0.186537 
 H380  H    -0.386403     -0.449335     -0.188121 
 H381  H    -0.429858      0.393595     -0.307403 
 H382  H     0.462248      0.363076     -0.305278 
 H383  H     0.353378      0.472627     -0.305933 
 H384  H     0.378793     -0.413283     -0.308011 
 H385  H    -0.392181     -0.444240     -0.310003 
 N386  N     0.483990     -0.499046     -0.314901 
 H387  H    -0.474791     -0.366254     -0.309098 
 C388  C    -0.337203     -0.225385      0.491236 
 C389  C    -0.312838     -0.313717     -0.498867 
 C390  C    -0.227363     -0.337514     -0.490047 
 C391  C    -0.165670     -0.270198     -0.488639 
 C392  C    -0.190057     -0.181733     -0.498443 
 C393  C    -0.275601     -0.158024      0.492527 
 O394  O    -0.207371     -0.425799     -0.484350 
 C395  C    -0.120194     -0.449943     -0.492616 
 C396  C    -0.113710      0.450902      0.495913 
 C397  C    -0.023568      0.422036      0.477526 
 C398  C    -0.015790      0.322729      0.463972 
 O399  O    -0.296399     -0.069938      0.486377 
 C400  C    -0.384580     -0.047435      0.490351 
 C401  C    -0.394790      0.051947      0.498449 
 C402  C    -0.486725      0.078243     -0.486905 
 C403  C    -0.498359      0.177522     -0.475017 
 H404  H    -0.098547     -0.285851     -0.480598 
 H405  H    -0.404464     -0.210215      0.483217 
 H406  H    -0.417589     -0.069391      0.442458 
 H407  H    -0.412411     -0.082806     -0.464573 
 H408  H    -0.094116     -0.413143      0.462264 
 H409  H    -0.083862     -0.431206     -0.445419 
 H410  H    -0.353204      0.074946     -0.458725 
 H411  H    -0.373232      0.086777      0.450928 
 H412  H    -0.134369      0.414496     -0.456979 
 H413  H    -0.157981      0.431543      0.453690 
 H414  H    -0.003083      0.459549      0.430831 
 H415  H     0.020718      0.440132     -0.479936 
 H416  H     0.471974      0.057645      0.469331 
 H417  H     0.491505      0.040988     -0.440499 
 H418  H     0.435461      0.192818     -0.463157 
 H419  H    -0.458998      0.200255     -0.430865 
 H420  H    -0.481288      0.217198      0.478487 
 H421  H     0.048914      0.305678      0.448861 
 H422  H    -0.030721      0.282802     -0.489125 
 H423  H    -0.058809      0.301942      0.421514 
loop_  
_geom_bond_atom_site_label_1  
_geom_bond_atom_site_label_2  
Cu0   Cu1 
Cu0   O4 
Cu0   O7 
Cu0   O10 
Cu0   O13 
Cu0   N82 
Cu1   O2 
Cu1   O5 
Cu1   O8 
Cu1   O11 
Cu1   N276 
O2   C3 
C3   O4 
C3   C29 
O5   C6 
C6   O7 
C6   C85 
O8   C9 
C9   O10 
C9   C180 
O11   C12 
C12   O13 
C12   C124 
Cu14   Cu15 
Cu14   O18 
Cu14   O21 
Cu14   O24 
Cu14   O27 
Cu14   N174 
Cu15   O16 
Cu15   O19 
Cu15   O22 
Cu15   O25 
Cu15   N368 
O16   C17 
C17   O18 
C17   C121 
O19   C20 
C20   O21 
C20   C177 
O22   C23 
C23   O24 
C23   C88 
O25   C26 
C26   O27 
C26   C32 
C28   C29 
C28   C33 
C28   H45 
C29   C30 
C30   C31 
C30   O34 
C31   C32 
C31   H44 
C32   C33 
C33   O39 
O34   C35 
C35   C36 
C35   H48 
C35   H49 
C36   C37 
C36   H52 
C36   H53 
C37   C38 
C37   H54 
C37   H55 
C38   H61 
C38   H62 
C38   H63 
O39   C40 
C40   C41 
C40   H46 
C40   H47 
C41   C42 
C41   H50 
C41   H51 
C42   C43 
C42   H56 
C42   H57 
C43   H58 
C43   H59 
C43   H60 
N64   C65 
N64   C66 
N64   C67 
N64   Cu213 
C65   C71 
C65   H72 
C65   H73 
C66   C68 
C66   H69 
C66   H70 
C67   C74 
C67   H75 
C67   H76 
C68   H79 
C68   H80 
C68   N82 
C71   H77 
C71   H78 
C71   N82 
C74   H81 
C74   N82 
C74   H83 
C84   C85 
C84   C89 
C84   H101 
C85   C86 
C86   C87 
C86   O90 
C87   C88 
C87   H100 
C88   C89 
C89   O95 
O90   C91 
C91   C92 
C91   H104 
C91   H105 
C92   C93 
C92   H108 
C92   H109 
C93   C94 
C93   H110 
C93   H111 
C94   H117 
C94   H118 
C94   H119 
O95   C96 
C96   C97 
C96   H102 
C96   H103 
C97   C98 
C97   H106 
C97   H107 
C98   C99 
C98   H112 
C98   H113 
C99   H114 
C99   H115 
C99   H116 
C120   C121 
C120   C125 
C120   H137 
C121   C122 
C122   C123 
C122   O126 
C123   C124 
C123   H136 
C124   C125 
C125   O131 
O126   C127 
C127   C128 
C127   H140 
C127   H141 
C128   C129 
C128   H144 
C128   H145 
C129   C130 
C129   H146 
C129   H147 
C130   H153 
C130   H154 
C130   H155 
O131   C132 
C132   C133 
C132   H138 
C132   H139 
C133   C134 
C133   H142 
C133   H143 
C134   C135 
C134   H148 
C134   H149 
C135   H150 
C135   H151 
C135   H152 
N156   C157 
N156   C158 
N156   C159 
N156   Cu227 
C157   C163 
C157   H164 
C157   H165 
C158   C160 
C158   H161 
C158   H162 
C159   C166 
C159   H167 
C159   H168 
C160   H171 
C160   H172 
C160   N174 
C163   H169 
C163   H170 
C163   N174 
C166   H173 
C166   N174 
C166   H175 
C176   C177 
C176   C181 
C176   H193 
C177   C178 
C178   C179 
C178   O182 
C179   C180 
C179   H192 
C180   C181 
C181   O187 
O182   C183 
C183   C184 
C183   H196 
C183   H197 
C184   C185 
C184   H200 
C184   H201 
C185   C186 
C185   H202 
C185   H203 
C186   H209 
C186   H210 
C186   H211 
O187   C188 
C188   C189 
C188   H194 
C188   H195 
C189   C190 
C189   H198 
C189   H199 
C190   C191 
C190   H204 
C190   H205 
C191   H206 
C191   H207 
C191   H208 
Cu212   Cu213 
Cu212   O216 
Cu212   O219 
Cu212   O222 
Cu212   O225 
Cu212   N294 
Cu213   O214 
Cu213   O217 
Cu213   O220 
Cu213   O223 
O214   C215 
C215   O216 
C215   C244 
O217   C218 
C218   O219 
C218   C300 
O220   C221 
C221   O222 
C221   C392 
O223   C224 
C224   O225 
C224   C333 
Cu226   Cu227 
Cu226   O230 
Cu226   O233 
Cu226   O236 
Cu226   O239 
Cu226   N386 
Cu227   O228 
Cu227   O231 
Cu227   O234 
Cu227   O237 
O228   C229 
C229   O230 
C229   C336 
O231   C232 
C232   O233 
C232   C389 
O234   C235 
C235   O236 
C235   C297 
O237   C238 
C238   O239 
C238   C241 
C240   C241 
C240   C245 
C240   H257 
C241   C242 
C242   C243 
C242   O246 
C243   C244 
C243   H256 
C244   C245 
C245   O251 
O246   C247 
C247   C248 
C247   H260 
C247   H261 
C248   C249 
C248   H264 
C248   H265 
C249   C250 
C249   H266 
C249   H267 
C250   H273 
C250   H274 
C250   H275 
O251   C252 
C252   C253 
C252   H258 
C252   H259 
C253   C254 
C253   H262 
C253   H263 
C254   C255 
C254   H268 
C254   H269 
C255   H270 
C255   H271 
C255   H272 
N276   C277 
N276   C278 
N276   C279 
C277   C283 
C277   H284 
C277   H285 
C278   C280 
C278   H281 
C278   H282 
C279   C286 
C279   H287 
C279   H288 
C280   H291 
C280   H292 
C280   N294 
C283   H289 
C283   H290 
C283   N294 
C286   H293 
C286   N294 
C286   H295 
C296   C297 
C296   C301 
C296   H313 
C297   C298 
C298   C299 
C298   O302 
C299   C300 
C299   H312 
C300   C301 
C301   O307 
O302   C303 
C303   C304 
C303   H316 
C303   H317 
C304   C305 
C304   H320 
C304   H321 
C305   C306 
C305   H322 
C305   H323 
C306   H329 
C306   H330 
C306   H331 
O307   C308 
C308   C309 
C308   H314 
C308   H315 
C309   C310 
C309   H318 
C309   H319 
C310   C311 
C310   H324 
C310   H325 
C311   H326 
C311   H327 
C311   H328 
C332   C333 
C332   C337 
C332   H349 
C333   C334 
C334   C335 
C334   O338 
C335   C336 
C335   H348 
C336   C337 
C337   O343 
O338   C339 
C339   C340 
C339   H352 
C339   H353 
C340   C341 
C340   H356 
C340   H357 
C341   C342 
C341   H358 
C341   H359 
C342   H365 
C342   H366 
C342   H367 
O343   C344 
C344   C345 
C344   H350 
C344   H351 
C345   C346 
C345   H354 
C345   H355 
C346   C347 
C346   H360 
C346   H361 
C347   H362 
C347   H363 
C347   H364 
N368   C369 
N368   C370 
N368   C371 
C369   C375 
C369   H376 
C369   H377 
C370   C372 
C370   H373 
C370   H374 
C371   C378 
C371   H379 
C371   H380 
C372   H383 
C372   H384 
C372   N386 
C375   H381 
C375   H382 
C375   N386 
C378   H385 
C378   N386 
C378   H387 
C388   C389 
C388   C393 
C388   H405 
C389   C390 
C390   C391 
C390   O394 
C391   C392 
C391   H404 
C392   C393 
C393   O399 
O394   C395 
C395   C396 
C395   H408 
C395   H409 
C396   C397 
C396   H412 
C396   H413 
C397   C398 
C397   H414 
C397   H415 
C398   H421 
C398   H422 
C398   H423 
O399   C400 
C400   C401 
C400   H406 
C400   H407 
C401   C402 
C401   H410 
C401   H411 
C402   C403 
C402   H416 
C402   H417 
C403   H418 
C403   H419 
C403   H420 
  
#END  
