data_
_symmetry_cell_setting           triclinic 
_symmetry_space_group_name_H-M   'P 1' 
_symmetry_Int_Tables_number      1 
loop_ 
_symmetry_equiv_pos_site_id 
_symmetry_equiv_pos_as_xyz 
1 x,y,z 
_cell_length_a             14.784079        
_cell_length_b             15.918764        
_cell_length_c             19.132794        
_cell_angle_alpha          90.991485        
_cell_angle_beta           88.248302        
_cell_angle_gamma          89.879882        
loop_  
_atom_site_label   
_atom_site_type_symbol  
_atom_site_fract_x  
_atom_site_fract_y  
_atom_site_fract_z 
 Cu0  Cu    -0.002180     -0.001161      0.061242 
 Cu1  Cu     0.004373     -0.004044     -0.074945 
 O2  O    -0.078301      0.093957     -0.066772 
 C3  C    -0.116584      0.114815     -0.008544 
 O4  O    -0.103659      0.079341      0.049512 
 O5  O     0.109702      0.073931     -0.061572 
 C6  C     0.122708      0.110444     -0.002842 
 O7  O     0.081395      0.093944      0.054530 
 O8  O    -0.100991     -0.082351     -0.065015 
 C9  C    -0.123995     -0.112896     -0.005859 
 O10  O    -0.088663     -0.094297      0.052194 
 O11  O     0.085210     -0.102498     -0.065308 
 C12  C     0.120749     -0.117806     -0.007016 
 O13  O     0.102147     -0.080283      0.051050 
 Cu14  Cu     0.496040     -0.497086      0.070510 
 Cu15  Cu    -0.497434      0.493909     -0.065711 
 O16  O     0.390966     -0.436244     -0.058493 
 C17  C     0.369920     -0.396361     -0.002037 
 O18  O     0.403138     -0.409122      0.057562 
 O19  O    -0.421781     -0.403810     -0.058046 
 C20  C    -0.389631     -0.378657     -0.000437 
 O21  O    -0.410716     -0.407398      0.059637 
 O22  O     0.428908      0.391526     -0.055956 
 C23  C     0.391354      0.373448      0.002588 
 O24  O     0.402610      0.412979      0.060212 
 O25  O    -0.386882      0.424749     -0.050907 
 C26  C    -0.370366      0.392930      0.008065 
 O27  O    -0.408789      0.414643      0.065998 
 C28  C    -0.254617      0.307161     -0.056644 
 C29  C    -0.301804      0.322869      0.006939 
 C30  C    -0.287767      0.272073      0.065144 
 C31  C    -0.227865      0.203889      0.057468 
 C32  C    -0.180764      0.188258     -0.006048 
 C33  C    -0.192429      0.240616     -0.063532 
 O34  O    -0.333482      0.289890      0.127328 
 C35  C    -0.330457      0.233048      0.185027 
 C36  C    -0.245331      0.244838      0.227558 
 C37  C    -0.239286      0.330810      0.264865 
 C38  C    -0.153805      0.341000      0.307678 
 O39  O    -0.143455      0.223535     -0.124381 
 C40  C    -0.133659      0.284719     -0.178571 
 C41  C    -0.181954      0.255836     -0.244129 
 C42  C    -0.280863      0.228828     -0.231995 
 C43  C    -0.328027      0.204663     -0.299746 
 H44  H    -0.217632      0.162415      0.101367 
 H45  H    -0.268027      0.345806     -0.101707 
 H46  H    -0.156644      0.347432     -0.160872 
 H47  H    -0.060572      0.290424     -0.190310 
 H48  H    -0.391020      0.245794      0.218518 
 H49  H    -0.336994      0.167811      0.165695 
 H50  H    -0.179532      0.306854     -0.282306 
 H51  H    -0.143994      0.203197     -0.269025 
 H52  H    -0.243584      0.195382      0.267094 
 H53  H    -0.184149      0.235619      0.194049 
 H54  H    -0.241461      0.380854      0.225923 
 H55  H    -0.299303      0.339692      0.299768 
 H56  H    -0.282985      0.174989     -0.196616 
 H57  H    -0.318976      0.279814     -0.204929 
 H58  H    -0.398080      0.184518     -0.289045 
 H59  H    -0.330387      0.257909     -0.335453 
 H60  H    -0.292568      0.152787     -0.327732 
 H61  H    -0.092155      0.335176      0.274338 
 H62  H    -0.152498      0.402882      0.334037 
 H63  H    -0.150623      0.293203      0.348354 
 N64  N     0.002823     -0.001344      0.310627 
 C65  C     0.094202      0.017428      0.281379 
 C66  C    -0.024977     -0.084438      0.283235 
 C67  C    -0.060961      0.062310      0.285258 
 C68  C    -0.022833     -0.085920      0.201585 
 H69  H     0.019870     -0.133136      0.303479 
 H70  H    -0.093891     -0.098026      0.303510 
 C71  C     0.093654      0.018325      0.199828 
 H72  H     0.116899      0.078593      0.302230 
 H73  H     0.142196     -0.030154      0.299269 
 C74  C    -0.062212      0.060422      0.203612 
 H75  H    -0.129225      0.049904      0.307550 
 H76  H    -0.040800      0.124876      0.304927 
 H77  H     0.113406      0.080828      0.180765 
 H78  H     0.143175     -0.027091      0.177152 
 H79  H     0.025787     -0.133276      0.180540 
 H80  H    -0.089668     -0.103595      0.182137 
 H81  H    -0.044992      0.122671      0.182600 
 N82  N     0.002829     -0.002644      0.174322 
 H83  H    -0.130508      0.044828      0.185724 
 C84  C     0.255808      0.303450      0.053219 
 C85  C     0.327995      0.300060      0.004159 
 C86  C     0.335117      0.233152     -0.044848 
 C87  C     0.264781      0.174812     -0.049044 
 C88  C     0.191587      0.179294     -0.000944 
 C89  C     0.186022      0.244484      0.049711 
 O90  O     0.406279      0.220769     -0.091231 
 C91  C     0.494507      0.213896     -0.062205 
 C92  C    -0.450229      0.148836     -0.104359 
 C93  C    -0.487284      0.058832     -0.100253 
 C94  C    -0.430704     -0.004920     -0.143943 
 O95  O     0.116686      0.253055      0.098422 
 C96  C     0.029937      0.276264      0.072444 
 C97  C     0.030653      0.367890      0.050681 
 C98  C     0.047256      0.431348      0.110328 
 C99  C     0.059526     -0.478517      0.084628 
 H100  H     0.270686      0.124023     -0.088022 
 H101  H     0.249724      0.354364      0.092033 
 H102  H     0.012828      0.235408      0.027795 
 H103  H    -0.021497      0.265446      0.114139 
 H104  H    -0.471925      0.275315     -0.065281 
 H105  H     0.488991      0.196952     -0.006603 
 H106  H     0.083431      0.375723      0.009561 
 H107  H    -0.034071      0.382726      0.026556 
 H108  H    -0.446343      0.167823     -0.159429 
 H109  H    -0.380278      0.149465     -0.086056 
 H110  H    -0.489818      0.039436     -0.045292 
 H111  H     0.442368      0.057748     -0.117592 
 H112  H    -0.009653      0.429024      0.148746 
 H113  H     0.107847      0.412715      0.138334 
 H114  H    -0.000047     -0.456887      0.056941 
 H115  H     0.070174     -0.434587      0.128507 
 H116  H     0.118589     -0.473731      0.048561 
 H117  H    -0.459265     -0.068433     -0.139977 
 H118  H    -0.428310      0.011608     -0.199509 
 H119  H    -0.360677     -0.007643     -0.126279 
 C120  C     0.167521     -0.261118     -0.045759 
 C121  C     0.187871     -0.188268     -0.007305 
 C122  C     0.267974     -0.181505      0.029860 
 C123  C     0.325056     -0.251762      0.032414 
 C124  C     0.304606     -0.324771     -0.005690 
 C125  C     0.226921     -0.330065     -0.045976 
 O126  O     0.288065     -0.105794      0.061073 
 C127  C     0.379027     -0.091690      0.082830 
 C128  C     0.395826      0.002055      0.093467 
 C129  C     0.330812      0.045923      0.146606 
 C130  C     0.357302      0.137115      0.162971 
 O131  O     0.212167     -0.403236     -0.082886 
 C132  C     0.133869     -0.410470     -0.125119 
 C133  C     0.140563     -0.491222     -0.169059 
 C134  C     0.140885      0.428143     -0.126098 
 C135  C     0.152419      0.347582     -0.170696 
 H136  H     0.386155     -0.249562      0.063096 
 H137  H     0.104924     -0.263970     -0.074591 
 H138  H     0.072861     -0.410610     -0.090547 
 H139  H     0.130060     -0.355914     -0.159516 
 H140  H     0.388960     -0.125674      0.131701 
 H141  H     0.427293     -0.116920      0.042655 
 H142  H     0.083589     -0.493621     -0.204773 
 H143  H     0.202262     -0.489509     -0.202664 
 H144  H     0.465969      0.011203      0.109834 
 H145  H     0.390865      0.033462      0.042835 
 H146  H     0.262349      0.045080      0.125502 
 H147  H     0.327202      0.010141      0.195320 
 H148  H     0.195431      0.431510     -0.088134 
 H149  H     0.076958      0.424876     -0.095314 
 H150  H     0.217195      0.347178     -0.200472 
 H151  H     0.151384      0.291724     -0.137657 
 H152  H     0.098017      0.340569     -0.208177 
 H153  H     0.424330      0.140840      0.186109 
 H154  H     0.359557      0.174715      0.115327 
 H155  H     0.308260      0.167047      0.199934 
 N156  N    -0.499517     -0.498373      0.320703 
 C157  C     0.475501      0.417763      0.292752 
 C158  C     0.434431     -0.436129      0.296351 
 C159  C    -0.409483     -0.476104      0.290843 
 C160  C     0.433774     -0.435264      0.214645 
 H161  H     0.366855     -0.451466      0.318422 
 H162  H     0.452058     -0.373446      0.317175 
 C163  C     0.471841      0.418476      0.211295 
 H164  H    -0.474699      0.371166      0.309542 
 H165  H     0.409422      0.399128      0.315695 
 C166  C    -0.410453     -0.477711      0.209183 
 H167  H    -0.390969     -0.413031      0.310359 
 H168  H    -0.358419      0.479977      0.309921 
 H169  H    -0.483032      0.370020      0.187544 
 H170  H     0.402916      0.403617      0.194458 
 H171  H     0.365401     -0.448838      0.195900 
 H172  H     0.452588     -0.372693      0.195090 
 H173  H    -0.361813      0.475497      0.187332 
 N174  N     0.498100     -0.498215      0.184345 
 H175  H    -0.389426     -0.416228      0.188682 
 C176  C    -0.318894     -0.253183      0.053937 
 C177  C    -0.320833     -0.309630     -0.002957 
 C178  C    -0.260747     -0.300739     -0.060764 
 C179  C    -0.201174     -0.232784     -0.062749 
 C180  C    -0.197348     -0.177815     -0.005017 
 C181  C    -0.257032     -0.186328      0.053158 
 O182  O    -0.257585     -0.355105     -0.116821 
 C183  C    -0.227201     -0.438877     -0.102954 
 C184  C    -0.136937     -0.456078     -0.141296 
 C185  C    -0.142671     -0.471026     -0.220835 
 C186  C    -0.175446     -0.395340     -0.261755 
 O187  O    -0.251547     -0.127662      0.106341 
 C188  C    -0.316158     -0.124537      0.163964 
 C189  C    -0.292116     -0.188257      0.219166 
 C190  C    -0.350724     -0.182103      0.286935 
 C191  C    -0.334246     -0.102479      0.331115 
 H192  H    -0.155115     -0.226632     -0.108034 
 H193  H    -0.366462     -0.260828      0.098113 
 H194  H    -0.313593     -0.060157      0.185749 
 H195  H    -0.385113     -0.134022      0.145090 
 H196  H    -0.220645     -0.447487     -0.046267 
 H197  H    -0.279140     -0.483135     -0.120539 
 H198  H    -0.297374     -0.252358      0.197250 
 H199  H    -0.220596     -0.180481      0.232384 
 H200  H    -0.090271     -0.403738     -0.131032 
 H201  H    -0.105999      0.488181     -0.118329 
 H202  H    -0.075333     -0.489998     -0.241635 
 H203  H    -0.187394      0.475143     -0.230844 
 H204  H    -0.422747     -0.186137      0.274241 
 H205  H    -0.337064     -0.237345      0.318879 
 H206  H    -0.352036     -0.045114      0.303499 
 H207  H    -0.374775     -0.103309      0.380226 
 H208  H    -0.262935     -0.097511      0.345394 
 H209  H    -0.132087     -0.340242     -0.253643 
 H210  H    -0.175071     -0.409497     -0.318229 
 H211  H    -0.245047     -0.377670     -0.246036 
 Cu212  Cu     0.000249      0.002570     -0.439776 
 Cu213  Cu     0.004453     -0.000022      0.424063 
 O214  O    -0.103079      0.074963      0.437482 
 C215  C    -0.119073      0.114555      0.494999 
 O216  O    -0.082429      0.099678     -0.447083 
 O217  O     0.084171      0.100087      0.433669 
 C218  C     0.122194      0.115813      0.491331 
 O219  O     0.104903      0.079114     -0.451257 
 O220  O    -0.074857     -0.099986      0.433921 
 C221  C    -0.112557     -0.118049      0.492436 
 O222  O    -0.101551     -0.077831     -0.450176 
 O223  O     0.111555     -0.074805      0.431216 
 C224  C     0.126022     -0.110239      0.489027 
 O225  O     0.084437     -0.093436     -0.453087 
 Cu226  Cu     0.498371      0.498928     -0.429727 
 Cu227  Cu    -0.495472     -0.497353      0.434277 
 O228  O     0.432492     -0.393535      0.449593 
 C229  C     0.391277     -0.376209     -0.492442 
 O230  O     0.402441     -0.414294     -0.435318 
 O231  O    -0.383973     -0.428902      0.447417 
 C232  C    -0.368466     -0.393786     -0.493683 
 O233  O    -0.408164     -0.412005     -0.435983 
 O234  O     0.391058      0.435400      0.441817 
 C235  C     0.370807      0.396559      0.497769 
 O236  O     0.406496      0.409738     -0.443252 
 O237  O    -0.423283      0.397856      0.437841 
 C238  C    -0.388418      0.377774      0.495302 
 O239  O    -0.404905      0.413003     -0.445380 
 C240  C    -0.258467      0.176500      0.448011 
 C241  C    -0.186099      0.185052      0.493213 
 C242  C    -0.179215      0.256365     -0.462954 
 C243  C    -0.248470      0.316204     -0.461074 
 C244  C    -0.321346      0.307289      0.494353 
 C245  C    -0.327902      0.236442      0.449725 
 O246  O    -0.108163      0.271054     -0.420446 
 C247  C    -0.025248      0.293849     -0.456264 
 C248  C     0.043814      0.322893     -0.403528 
 C249  C     0.016260      0.401461     -0.359891 
 C250  C     0.005987      0.481238     -0.402943 
 O251  O    -0.397473      0.221946      0.405541 
 C252  C    -0.485769      0.211632      0.437826 
 C253  C     0.449231      0.178994      0.383344 
 C254  C     0.470892      0.090426      0.353878 
 C255  C     0.459512      0.020652      0.407810 
 H256  H    -0.242267      0.371002     -0.426447 
 H257  H    -0.264523      0.121665      0.413434 
 H258  H    -0.481342      0.168385      0.481931 
 H259  H     0.489812      0.272244      0.459376 
 H260  H     0.000726      0.239034     -0.486419 
 H261  H    -0.038943      0.343474     -0.493986 
 H262  H     0.380106      0.179129      0.406486 
 H263  H     0.448029      0.223569      0.339970 
 H264  H     0.057648      0.270818     -0.368172 
 H265  H     0.108427      0.335522     -0.431525 
 H266  H    -0.047371      0.389016     -0.330560 
 H267  H     0.067680      0.412633     -0.320384 
 H268  H     0.426165      0.077161      0.310082 
 H269  H    -0.459654      0.089186      0.331372 
 H270  H     0.390034      0.019186      0.429982 
 H271  H     0.473660     -0.041340      0.383810 
 H272  H    -0.494192      0.028870      0.451250 
 H273  H    -0.010851     -0.464159     -0.369057 
 H274  H     0.069024      0.495861     -0.432170 
 H275  H    -0.048151      0.474835     -0.440770 
 N276  N    -0.002662      0.003877     -0.188696 
 C277  C     0.046836     -0.069500     -0.219336 
 C278  C    -0.096506      0.001576     -0.213800 
 C279  C     0.041305      0.080953     -0.215240 
 C280  C    -0.096935      0.002003     -0.295547 
 H281  H    -0.130733     -0.054994     -0.193771 
 H282  H    -0.134247      0.056052     -0.191517 
 C283  C     0.046859     -0.067706     -0.300995 
 H284  H     0.116811     -0.069070     -0.200848 
 H285  H     0.014957     -0.127588     -0.199964 
 C286  C     0.039463      0.083014     -0.296871 
 H287  H     0.006742      0.136419     -0.191615 
 H288  H     0.111668      0.082848     -0.197726 
 H289  H     0.116756     -0.065598     -0.322644 
 H290  H     0.015870     -0.125369     -0.322205 
 H291  H    -0.129752     -0.055193     -0.315801 
 H292  H    -0.136185      0.055748     -0.314124 
 H293  H     0.108713      0.088207     -0.319266 
 N294  N    -0.003493      0.006296     -0.325237 
 H295  H     0.001872      0.138375     -0.314281 
 C296  C     0.189584      0.242836      0.436898 
 C297  C     0.190824      0.185183      0.491374 
 C298  C     0.250561      0.196272     -0.453556 
 C299  C     0.305670      0.267342     -0.451517 
 C300  C     0.303904      0.325693      0.494564 
 C301  C     0.244066      0.315006      0.439314 
 O302  O     0.255206      0.142990     -0.398670 
 C303  C     0.305326      0.066873     -0.412134 
 C304  C     0.317573      0.020879     -0.343799 
 C305  C     0.380552      0.064085     -0.291520 
 C306  C     0.344887      0.147206     -0.259354 
 O307  O     0.240513      0.375848      0.389637 
 C308  C     0.166129      0.376742      0.343114 
 C309  C     0.160370      0.462742      0.309682 
 C310  C     0.123529     -0.466272      0.358528 
 C311  C     0.179425     -0.448082      0.423269 
 H312  H     0.351257      0.274496     -0.408034 
 H313  H     0.143653      0.233265      0.393874 
 H314  H     0.177652      0.327224      0.302821 
 H315  H     0.102275      0.363054      0.371908 
 H316  H     0.268394      0.027044     -0.449285 
 H317  H     0.371391      0.082099     -0.436947 
 H318  H     0.227459      0.480392      0.288148 
 H319  H     0.116162      0.457687      0.264504 
 H320  H     0.251017      0.010688     -0.318083 
 H321  H     0.344420     -0.042276     -0.356677 
 H322  H     0.392944      0.020268     -0.248920 
 H323  H     0.447033      0.074745     -0.317351 
 H324  H     0.119397     -0.408310      0.328287 
 H325  H     0.053510     -0.481053      0.375270 
 H326  H     0.250087     -0.433779      0.408652 
 H327  H     0.151913     -0.393824      0.453276 
 H328  H     0.179842      0.498525      0.458863 
 H329  H     0.279069      0.138838     -0.232119 
 H330  H     0.391994      0.172410     -0.221021 
 H331  H     0.336891      0.195618     -0.298863 
 C332  C     0.196705     -0.225443     -0.447324 
 C333  C     0.196520     -0.178045      0.491665 
 C334  C     0.260358     -0.193546      0.437060 
 C335  C     0.324715     -0.257232      0.445146 
 C336  C     0.324163     -0.305331     -0.494151 
 C337  C     0.260673     -0.289395     -0.439393 
 O338  O     0.257726     -0.145182      0.378391 
 C339  C     0.321787     -0.157874      0.321115 
 C340  C     0.295731     -0.232551      0.274763 
 C341  C     0.205288     -0.221226      0.238573 
 C342  C     0.180846     -0.295940      0.191212 
 O343  O     0.262729     -0.337728     -0.380702 
 C344  C     0.196051     -0.326740     -0.325062 
 C345  C     0.218920     -0.252102     -0.277529 
 C346  C     0.305822     -0.263982     -0.236725 
 C347  C     0.327873     -0.188212     -0.189687 
 H348  H     0.375120     -0.270154      0.403522 
 H349  H     0.146202     -0.212716     -0.405720 
 H350  H     0.128140     -0.320839     -0.346639 
 H351  H     0.195612     -0.385221     -0.295218 
 H352  H     0.322061     -0.099732      0.290754 
 H353  H     0.390520     -0.164880      0.340893 
 H354  H     0.225642     -0.194534     -0.308324 
 H355  H     0.162001     -0.240637     -0.240077 
 H356  H     0.349610     -0.243105      0.234516 
 H357  H     0.292384     -0.290273      0.305632 
 H358  H     0.151087     -0.211394      0.278636 
 H359  H     0.208023     -0.163812      0.207302 
 H360  H     0.299447     -0.320403     -0.204481 
 H361  H     0.362854     -0.276074     -0.273896 
 H362  H     0.389465     -0.199496     -0.160429 
 H363  H     0.338747     -0.131248     -0.220435 
 H364  H     0.272703     -0.174925     -0.151252 
 H365  H     0.232965     -0.307049      0.149899 
 H366  H     0.173887     -0.354100      0.220936 
 H367  H     0.116566     -0.284782      0.165442 
 N368  N     0.491941      0.492973     -0.179565 
 C369  C    -0.449089      0.425351     -0.209452 
 C370  C     0.399616      0.479661     -0.205229 
 C371  C    -0.474837     -0.425642     -0.206161 
 C372  C     0.399717      0.480891     -0.286956 
 H373  H     0.373591      0.419342     -0.185599 
 H374  H     0.354741     -0.470843     -0.182826 
 C375  C    -0.449388      0.425481     -0.291171 
 H376  H    -0.379774      0.434468     -0.191097 
 H377  H    -0.472668      0.364407     -0.189311 
 C378  C    -0.473263     -0.425618     -0.287696 
 H379  H     0.481430     -0.374762     -0.184380 
 H380  H    -0.406298     -0.413972     -0.187217 
 H381  H    -0.380027      0.433658     -0.312863 
 H382  H    -0.474190      0.364971     -0.311940 
 H383  H     0.372925      0.421377     -0.308104 
 H384  H     0.355456     -0.468617     -0.305072 
 H385  H    -0.403436     -0.416404     -0.307850 
 N386  N     0.492437      0.493939     -0.316020 
 H387  H     0.485803     -0.373430     -0.307043 
 C388  C    -0.248003     -0.313694      0.443959 
 C389  C    -0.298725     -0.324935     -0.493866 
 C390  C    -0.285447     -0.271527     -0.435606 
 C391  C    -0.222307     -0.206063     -0.441380 
 C392  C    -0.174026     -0.193123      0.495682 
 C393  C    -0.184914     -0.248572      0.438649 
 O394  O    -0.335740     -0.284054     -0.375199 
 C395  C    -0.326684     -0.229624     -0.315068 
 C396  C    -0.373493     -0.144735     -0.323055 
 C397  C    -0.477420     -0.148041     -0.324127 
 C398  C     0.484026     -0.190436     -0.389410 
 O399  O    -0.139590     -0.239235      0.376039 
 C400  C    -0.068700     -0.299112      0.360432 
 C401  C    -0.069659     -0.323570      0.282996 
 C402  C    -0.154065     -0.373135      0.261881 
 C403  C    -0.155451     -0.394279      0.183404 
 H404  H    -0.212011     -0.163596     -0.396984 
 H405  H    -0.257266     -0.354489      0.398363 
 H406  H    -0.004101     -0.269128      0.373558 
 H407  H    -0.076451     -0.354906      0.393410 
 H408  H    -0.357394     -0.262573     -0.270146 
 H409  H    -0.254515     -0.221973     -0.303844 
 H410  H    -0.064052     -0.266537      0.251400 
 H411  H    -0.009059     -0.361398      0.269296 
 H412  H    -0.354090     -0.103770     -0.279044 
 H413  H    -0.348314     -0.113167     -0.370538 
 H414  H     0.496811     -0.180036     -0.277062 
 H415  H     0.496532     -0.083328     -0.319779 
 H416  H    -0.157999     -0.431648      0.291703 
 H417  H    -0.215139     -0.336896      0.277133 
 H418  H    -0.216995     -0.428822      0.169996 
 H419  H    -0.153146     -0.337152      0.151888 
 H420  H    -0.097287     -0.433633      0.166992 
 H421  H     0.409754     -0.187150     -0.388085 
 H422  H    -0.491547     -0.160051     -0.437537 
 H423  H    -0.497496     -0.257247     -0.393679 
loop_  
_geom_bond_atom_site_label_1  
_geom_bond_atom_site_label_2  
Cu0   Cu1 
Cu0   O4 
Cu0   O7 
Cu0   O10 
Cu0   O13 
Cu0   N82 
Cu1   O2 
Cu1   O5 
Cu1   O8 
Cu1   O11 
Cu1   N276 
O2   C3 
C3   O4 
C3   C32 
O5   C6 
C6   O7 
C6   C88 
O8   C9 
C9   O10 
C9   C180 
O11   C12 
C12   O13 
C12   C121 
Cu14   Cu15 
Cu14   O18 
Cu14   O21 
Cu14   O24 
Cu14   O27 
Cu14   N174 
Cu15   O16 
Cu15   O19 
Cu15   O22 
Cu15   O25 
Cu15   N368 
O16   C17 
C17   O18 
C17   C124 
O19   C20 
C20   O21 
C20   C177 
O22   C23 
C23   O24 
C23   C85 
O25   C26 
C26   O27 
C26   C29 
C28   C29 
C28   C33 
C28   H45 
C29   C30 
C30   C31 
C30   O34 
C31   C32 
C31   H44 
C32   C33 
C33   O39 
O34   C35 
C35   C36 
C35   H48 
C35   H49 
C36   C37 
C36   H52 
C36   H53 
C37   C38 
C37   H54 
C37   H55 
C38   H61 
C38   H62 
C38   H63 
O39   C40 
C40   C41 
C40   H46 
C40   H47 
C41   C42 
C41   H50 
C41   H51 
C42   C43 
C42   H56 
C42   H57 
C43   H58 
C43   H59 
C43   H60 
N64   C65 
N64   C66 
N64   C67 
N64   Cu213 
C65   C71 
C65   H72 
C65   H73 
C66   C68 
C66   H69 
C66   H70 
C67   C74 
C67   H75 
C67   H76 
C68   H79 
C68   H80 
C68   N82 
C71   H77 
C71   H78 
C71   N82 
C74   H81 
C74   N82 
C74   H83 
C84   C85 
C84   C89 
C84   H101 
C85   C86 
C86   C87 
C86   O90 
C87   C88 
C87   H100 
C88   C89 
C89   O95 
O90   C91 
C91   C92 
C91   H104 
C91   H105 
C92   C93 
C92   H108 
C92   H109 
C93   C94 
C93   H110 
C93   H111 
C94   H117 
C94   H118 
C94   H119 
O95   C96 
C96   C97 
C96   H102 
C96   H103 
C97   C98 
C97   H106 
C97   H107 
C98   C99 
C98   H112 
C98   H113 
C99   H114 
C99   H115 
C99   H116 
C120   C121 
C120   C125 
C120   H137 
C121   C122 
C122   C123 
C122   O126 
C123   C124 
C123   H136 
C124   C125 
C125   O131 
O126   C127 
C127   C128 
C127   H140 
C127   H141 
C128   C129 
C128   H144 
C128   H145 
C129   C130 
C129   H146 
C129   H147 
C130   H153 
C130   H154 
C130   H155 
O131   C132 
C132   C133 
C132   H138 
C132   H139 
C133   C134 
C133   H142 
C133   H143 
C134   C135 
C134   H148 
C134   H149 
C135   H150 
C135   H151 
C135   H152 
N156   C157 
N156   C158 
N156   C159 
N156   Cu227 
C157   C163 
C157   H164 
C157   H165 
C158   C160 
C158   H161 
C158   H162 
C159   C166 
C159   H167 
C159   H168 
C160   H171 
C160   H172 
C160   N174 
C163   H169 
C163   H170 
C163   N174 
C166   H173 
C166   N174 
C166   H175 
C176   C177 
C176   C181 
C176   H193 
C177   C178 
C178   C179 
C178   O182 
C179   C180 
C179   H192 
C180   C181 
C181   O187 
O182   C183 
C183   C184 
C183   H196 
C183   H197 
C184   C185 
C184   H200 
C184   H201 
C185   C186 
C185   H202 
C185   H203 
C186   H209 
C186   H210 
C186   H211 
O187   C188 
C188   C189 
C188   H194 
C188   H195 
C189   C190 
C189   H198 
C189   H199 
C190   C191 
C190   H204 
C190   H205 
C191   H206 
C191   H207 
C191   H208 
Cu212   Cu213 
Cu212   O216 
Cu212   O219 
Cu212   O222 
Cu212   O225 
Cu212   N294 
Cu213   O214 
Cu213   O217 
Cu213   O220 
Cu213   O223 
O214   C215 
C215   O216 
C215   C241 
O217   C218 
C218   O219 
C218   C297 
O220   C221 
C221   O222 
C221   C392 
O223   C224 
C224   O225 
C224   C333 
Cu226   Cu227 
Cu226   O230 
Cu226   O233 
Cu226   O236 
Cu226   O239 
Cu226   N386 
Cu227   O228 
Cu227   O231 
Cu227   O234 
Cu227   O237 
O228   C229 
C229   O230 
C229   C336 
O231   C232 
C232   O233 
C232   C389 
O234   C235 
C235   O236 
C235   C300 
O237   C238 
C238   O239 
C238   C244 
C240   C241 
C240   C245 
C240   H257 
C241   C242 
C242   C243 
C242   O246 
C243   C244 
C243   H256 
C244   C245 
C245   O251 
O246   C247 
C247   C248 
C247   H260 
C247   H261 
C248   C249 
C248   H264 
C248   H265 
C249   C250 
C249   H266 
C249   H267 
C250   H273 
C250   H274 
C250   H275 
O251   C252 
C252   C253 
C252   H258 
C252   H259 
C253   C254 
C253   H262 
C253   H263 
C254   C255 
C254   H268 
C254   H269 
C255   H270 
C255   H271 
C255   H272 
N276   C277 
N276   C278 
N276   C279 
C277   C283 
C277   H284 
C277   H285 
C278   C280 
C278   H281 
C278   H282 
C279   C286 
C279   H287 
C279   H288 
C280   H291 
C280   H292 
C280   N294 
C283   H289 
C283   H290 
C283   N294 
C286   H293 
C286   N294 
C286   H295 
C296   C297 
C296   C301 
C296   H313 
C297   C298 
C298   C299 
C298   O302 
C299   C300 
C299   H312 
C300   C301 
C301   O307 
O302   C303 
C303   C304 
C303   H316 
C303   H317 
C304   C305 
C304   H320 
C304   H321 
C305   C306 
C305   H322 
C305   H323 
C306   H329 
C306   H330 
C306   H331 
O307   C308 
C308   C309 
C308   H314 
C308   H315 
C309   C310 
C309   H318 
C309   H319 
C310   C311 
C310   H324 
C310   H325 
C311   H326 
C311   H327 
C311   H328 
C332   C333 
C332   C337 
C332   H349 
C333   C334 
C334   C335 
C334   O338 
C335   C336 
C335   H348 
C336   C337 
C337   O343 
O338   C339 
C339   C340 
C339   H352 
C339   H353 
C340   C341 
C340   H356 
C340   H357 
C341   C342 
C341   H358 
C341   H359 
C342   H365 
C342   H366 
C342   H367 
O343   C344 
C344   C345 
C344   H350 
C344   H351 
C345   C346 
C345   H354 
C345   H355 
C346   C347 
C346   H360 
C346   H361 
C347   H362 
C347   H363 
C347   H364 
N368   C369 
N368   C370 
N368   C371 
C369   C375 
C369   H376 
C369   H377 
C370   C372 
C370   H373 
C370   H374 
C371   C378 
C371   H379 
C371   H380 
C372   H383 
C372   H384 
C372   N386 
C375   H381 
C375   H382 
C375   N386 
C378   H385 
C378   N386 
C378   H387 
C388   C389 
C388   C393 
C388   H405 
C389   C390 
C390   C391 
C390   O394 
C391   C392 
C391   H404 
C392   C393 
C393   O399 
O394   C395 
C395   C396 
C395   H408 
C395   H409 
C396   C397 
C396   H412 
C396   H413 
C397   C398 
C397   H414 
C397   H415 
C398   H421 
C398   H422 
C398   H423 
O399   C400 
C400   C401 
C400   H406 
C400   H407 
C401   C402 
C401   H410 
C401   H411 
C402   C403 
C402   H416 
C402   H417 
C403   H418 
C403   H419 
C403   H420 
  
#END  
