data_
_symmetry_cell_setting           triclinic 
_symmetry_space_group_name_H-M   'P 1' 
_symmetry_Int_Tables_number      1 
loop_ 
_symmetry_equiv_pos_site_id 
_symmetry_equiv_pos_as_xyz 
1 x,y,z 
_cell_length_a             14.734003        
_cell_length_b             16.090722        
_cell_length_c             19.140865        
_cell_angle_alpha          89.324274        
_cell_angle_beta           90.719312        
_cell_angle_gamma          89.925693        
loop_  
_atom_site_label   
_atom_site_type_symbol  
_atom_site_fract_x  
_atom_site_fract_y  
_atom_site_fract_z 
 Cu0  Cu     0.004047      0.001817      0.068117 
 Cu1  Cu     0.001429      0.001599     -0.067993 
 O2  O    -0.100300      0.081975     -0.059210 
 C3  C    -0.117199      0.117417     -0.001721 
 O4  O    -0.082712      0.096696      0.057429 
 O5  O     0.089323      0.094901     -0.061280 
 C6  C     0.124096      0.115806     -0.002888 
 O7  O     0.104913      0.083432      0.056271 
 O8  O    -0.084398     -0.093118     -0.054749 
 C9  C    -0.119079     -0.111187      0.004167 
 O10  O    -0.099042     -0.076641      0.061844 
 O11  O     0.103582     -0.077942     -0.060414 
 C12  C     0.121982     -0.113675     -0.002294 
 O13  O     0.088217     -0.095286      0.056641 
 Cu14  Cu    -0.498292     -0.495108      0.070182 
 Cu15  Cu    -0.499153     -0.497967     -0.066095 
 O16  O     0.408703     -0.408445     -0.059298 
 C17  C     0.374336     -0.388445     -0.001089 
 O18  O     0.395170     -0.419633      0.058473 
 O19  O    -0.403341     -0.411831     -0.057726 
 C20  C    -0.383477     -0.377874      0.000260 
 O21  O    -0.417002     -0.397491      0.059225 
 O22  O     0.406156      0.414763     -0.055021 
 C23  C     0.384721      0.385047      0.004566 
 O24  O     0.417380      0.408562      0.062908 
 O25  O    -0.405912      0.413764     -0.055102 
 C26  C    -0.372570      0.393208      0.004363 
 O27  O    -0.392129      0.427679      0.061843 
 C28  C    -0.278244      0.292501     -0.060280 
 C29  C    -0.306497      0.321651      0.004624 
 C30  C    -0.273294      0.284076      0.066420 
 C31  C    -0.210857      0.218646      0.062820 
 C32  C    -0.182540      0.189507     -0.002106 
 C33  C    -0.214723      0.227589     -0.064243 
 O34  O    -0.297013      0.312833      0.130377 
 C35  C    -0.344738      0.256159      0.175125 
 C36  C    -0.443966      0.252163      0.152151 
 C37  C     0.496058      0.209281      0.206418 
 C38  C     0.394471      0.215061      0.189123 
 O39  O    -0.183425      0.199982     -0.127060 
 C40  C    -0.189907      0.252098     -0.188461 
 C41  C    -0.123575      0.324573     -0.183818 
 C42  C    -0.135374      0.388343     -0.243681 
 C43  C    -0.058883      0.452824     -0.247046 
 H44  H    -0.184549      0.191603      0.111519 
 H45  H    -0.304700      0.321458     -0.108143 
 H46  H    -0.171827      0.213022     -0.232966 
 H47  H    -0.260339      0.272670     -0.197755 
 H48  H    -0.313121      0.194111      0.174965 
 H49  H    -0.338695      0.279645      0.228751 
 H50  H    -0.131072      0.356557     -0.133768 
 H51  H    -0.053777      0.299860     -0.183591 
 H52  H    -0.470607      0.314938      0.141669 
 H53  H    -0.449981      0.219896      0.101999 
 H54  H    -0.483352      0.143773      0.211364 
 H55  H    -0.491067      0.237674      0.257589 
 H56  H    -0.139636      0.355493     -0.293657 
 H57  H    -0.200937      0.420355     -0.238111 
 H58  H    -0.070091      0.497120     -0.290470 
 H59  H    -0.053693      0.488543     -0.198676 
 H60  H     0.007216      0.422919     -0.254849 
 H61  H     0.353935      0.179854      0.227090 
 H62  H     0.371014      0.279765      0.190050 
 H63  H     0.379188      0.191133      0.136752 
 N64  N     0.001558     -0.004392      0.319581 
 C65  C     0.002116     -0.090520      0.293102 
 C66  C    -0.079936      0.038092      0.290448 
 C67  C     0.082809      0.038729      0.292565 
 C68  C    -0.077416      0.040872      0.208804 
 H69  H    -0.140894      0.004959      0.308684 
 H70  H    -0.083687      0.101584      0.311249 
 C71  C    -0.000891     -0.090745      0.211306 
 H72  H     0.063731     -0.122322      0.312959 
 H73  H    -0.056203     -0.124757      0.314584 
 C74  C     0.085148      0.035341      0.210994 
 H75  H     0.081412      0.103869      0.309851 
 H76  H     0.144325      0.010160      0.315945 
 H77  H     0.056329     -0.126775      0.190607 
 H78  H    -0.063495     -0.120847      0.192184 
 H79  H    -0.139869      0.014136      0.186056 
 H80  H    -0.073745      0.105844      0.190074 
 H81  H     0.144668     -0.000110      0.193654 
 N82  N     0.002408     -0.004844      0.182834 
 H83  H     0.091200      0.098520      0.188588 
 C84  C     0.315230      0.263643     -0.053656 
 C85  C     0.316569      0.315627      0.004455 
 C86  C     0.254745      0.303873      0.059067 
 C87  C     0.193027      0.237647      0.055773 
 C88  C     0.191768      0.185614     -0.002407 
 C89  C     0.253035      0.197900     -0.057341 
 O90  O     0.256759      0.358090      0.113725 
 C91  C     0.176974      0.369533      0.154858 
 C92  C     0.193860      0.446138      0.199149 
 C93  C     0.110102      0.480113      0.236289 
 C94  C     0.129539     -0.439847      0.276565 
 O95  O     0.250643      0.145230     -0.113078 
 C96  C     0.331239      0.134837     -0.153535 
 C97  C     0.315329      0.061717     -0.201895 
 C98  C     0.401153      0.029178     -0.237134 
 C99  C     0.382276     -0.042949     -0.286936 
 H100  H     0.145709      0.226925      0.098370 
 H101  H     0.362704      0.274527     -0.096134 
 H102  H     0.344465      0.191834     -0.184196 
 H103  H     0.389599      0.123428     -0.118097 
 H104  H     0.117382      0.377934      0.120118 
 H105  H     0.165777      0.314244      0.188138 
 H106  H     0.284402      0.010388     -0.172095 
 H107  H     0.265471      0.080221     -0.242506 
 H108  H     0.246538      0.431098      0.238590 
 H109  H     0.221921      0.495808      0.165806 
 H110  H     0.054934      0.491483      0.198028 
 H111  H     0.084959      0.432595      0.272718 
 H112  H     0.433149      0.080379     -0.265942 
 H113  H     0.451114      0.009261     -0.197094 
 H114  H     0.445038     -0.064466     -0.311417 
 H115  H     0.352416     -0.096310     -0.259171 
 H116  H     0.334802     -0.024419     -0.329115 
 H117  H     0.068422     -0.417523      0.302877 
 H118  H     0.182462     -0.449670      0.316861 
 H119  H     0.152694     -0.389860      0.241430 
 C120  C     0.163148     -0.258982      0.031291 
 C121  C     0.186853     -0.185325     -0.003492 
 C122  C     0.270135     -0.178348     -0.037890 
 C123  C     0.329472     -0.246317     -0.039262 
 C124  C     0.306417     -0.319357     -0.003491 
 C125  C     0.222737     -0.326897      0.029966 
 O126  O     0.292720     -0.106025     -0.071080 
 C127  C     0.373274     -0.064872     -0.046539 
 C128  C     0.349481     -0.004491      0.011183 
 C129  C     0.333192     -0.045081      0.082962 
 C130  C     0.327164      0.018196      0.141803 
 O131  O     0.201793     -0.399487      0.063294 
 C132  C     0.122328     -0.442178      0.038970 
 C133  C     0.148732      0.490455     -0.012458 
 C134  C     0.161988     -0.479252     -0.087995 
 C135  C     0.175036      0.449441     -0.139399 
 H136  H     0.393631     -0.241253     -0.066970 
 H137  H     0.099293     -0.264139      0.059359 
 H138  H     0.089011     -0.469513      0.084869 
 H139  H     0.073901     -0.397971      0.014788 
 H140  H     0.424839     -0.109977     -0.028154 
 H141  H     0.402571     -0.031464     -0.091234 
 H142  H     0.211870      0.460610      0.006186 
 H143  H     0.097016      0.441245     -0.012285 
 H144  H     0.403852      0.041811      0.016112 
 H145  H     0.288430      0.030761     -0.004704 
 H146  H     0.269890     -0.081032      0.081235 
 H147  H     0.387924     -0.089837      0.094870 
 H148  H     0.102845     -0.441772     -0.104487 
 H149  H     0.221215     -0.437777     -0.090190 
 H150  H     0.183759      0.473080     -0.192980 
 H151  H     0.235390      0.412324     -0.125436 
 H152  H     0.116372      0.407299     -0.139633 
 H153  H     0.311379     -0.011995      0.191928 
 H154  H     0.391783      0.051215      0.148369 
 H155  H     0.273873      0.064525      0.130572 
 N156  N    -0.493527     -0.487430      0.320845 
 C157  C    -0.410486      0.471349      0.295822 
 C158  C     0.427045      0.469013      0.291097 
 C159  C    -0.494624     -0.400914      0.293592 
 C160  C     0.429590      0.471410      0.209671 
 H161  H     0.426978      0.404086      0.310317 
 H162  H     0.364464      0.498384      0.310105 
 C163  C    -0.407540      0.473511      0.214340 
 H164  H    -0.350523     -0.497914      0.318777 
 H165  H    -0.409318      0.406439      0.314956 
 C166  C    -0.490737     -0.399499      0.211897 
 H167  H     0.443277     -0.369877      0.311569 
 H168  H    -0.436842     -0.366658      0.316309 
 H169  H    -0.346424     -0.494293      0.195530 
 H170  H    -0.404189      0.410057      0.194361 
 H171  H     0.428778      0.407714      0.189442 
 H172  H     0.369256     -0.496517      0.188033 
 H173  H    -0.430216     -0.365781      0.193740 
 N174  N    -0.488783     -0.484867      0.184470 
 H175  H     0.450075     -0.366876      0.189189 
 C176  C    -0.311230     -0.256446      0.058288 
 C177  C    -0.314979     -0.308854      0.000346 
 C178  C    -0.254203     -0.297817     -0.054922 
 C179  C    -0.192024     -0.232147     -0.053340 
 C180  C    -0.188100     -0.179809      0.004583 
 C181  C    -0.248197     -0.191399      0.060304 
 O182  O    -0.254645     -0.349857     -0.110822 
 C183  C    -0.176520     -0.402863     -0.115430 
 C184  C    -0.183883     -0.475866     -0.064008 
 C185  C    -0.091683      0.493971     -0.035291 
 C186  C    -0.098400      0.419957      0.015560 
 O187  O    -0.244921     -0.140813      0.117144 
 C188  C    -0.321902     -0.087342      0.126072 
 C189  C    -0.327432     -0.024536      0.065872 
 C190  C    -0.407124      0.036354      0.071191 
 C191  C    -0.419414      0.091718      0.005901 
 H192  H    -0.146776     -0.223372     -0.097516 
 H193  H    -0.356545     -0.265268      0.102386 
 H194  H    -0.384354     -0.124708      0.129380 
 H195  H    -0.312990     -0.055576      0.176334 
 H196  H    -0.173551     -0.425009     -0.169529 
 H197  H    -0.114353     -0.366584     -0.105681 
 H198  H    -0.263491      0.010783      0.063161 
 H199  H    -0.333519     -0.057811      0.016144 
 H200  H    -0.225793     -0.458764     -0.019201 
 H201  H    -0.220178      0.472639     -0.089366 
 H202  H    -0.047212      0.477525     -0.078761 
 H203  H    -0.058848     -0.453889     -0.008425 
 H204  H    -0.469795      0.001084      0.080460 
 H205  H    -0.396715      0.075426      0.117359 
 H206  H    -0.476041      0.135540      0.011532 
 H207  H    -0.358173      0.128421     -0.004342 
 H208  H    -0.433534      0.054610     -0.040759 
 H209  H    -0.032337      0.404344      0.039452 
 H210  H    -0.145676      0.432672      0.058069 
 H211  H    -0.122516      0.364227     -0.011295 
 Cu212  Cu     0.005357     -0.000099     -0.430306 
 Cu213  Cu    -0.002995      0.001223      0.433822 
 O214  O    -0.099597      0.086062      0.443980 
 C215  C    -0.109039      0.122934     -0.497997 
 O216  O    -0.067635      0.103919     -0.441245 
 O217  O     0.089611      0.090384      0.442098 
 C218  C     0.129758      0.107364      0.499532 
 O219  O     0.118537      0.068565     -0.442730 
 O220  O    -0.095409     -0.087239      0.446779 
 C221  C    -0.129016     -0.105048     -0.493782 
 O222  O    -0.108255     -0.069016     -0.436817 
 O223  O     0.093548     -0.084312      0.444132 
 C224  C     0.112478     -0.121006     -0.498116 
 O225  O     0.077995     -0.103566     -0.439297 
 Cu226  Cu    -0.497555      0.498289     -0.430974 
 Cu227  Cu     0.497747     -0.498408      0.433263 
 O228  O     0.415499     -0.401227      0.445118 
 C229  C     0.377619     -0.387694     -0.496510 
 O230  O     0.397364     -0.424604     -0.439049 
 O231  O    -0.395338     -0.422346      0.441412 
 C232  C    -0.377444     -0.386424      0.498921 
 O233  O    -0.412833     -0.405364     -0.442467 
 O234  O     0.389871      0.426563      0.441242 
 C235  C     0.378960      0.385932      0.498052 
 O236  O     0.417505      0.402485     -0.443662 
 O237  O    -0.420285      0.402799      0.444228 
 C238  C    -0.380057      0.384764     -0.498200 
 O239  O    -0.392588      0.421399     -0.440418 
 C240  C    -0.240204      0.318146     -0.448035 
 C241  C    -0.311088      0.315788     -0.497640 
 C242  C    -0.316872      0.249928      0.454948 
 C243  C    -0.246028      0.191735      0.452462 
 C244  C    -0.176179      0.193208     -0.497474 
 C245  C    -0.173009      0.256379     -0.447498 
 O246  O    -0.392637      0.241268      0.413403 
 C247  C    -0.416591      0.157544      0.395412 
 C248  C     0.480876      0.146752      0.393099 
 C249  C     0.452031      0.055348      0.385862 
 C250  C     0.488159      0.013011      0.320247 
 O251  O    -0.108623      0.256043     -0.395625 
 C252  C    -0.027030      0.301382     -0.409651 
 C253  C     0.043857      0.274653     -0.355309 
 C254  C     0.130682      0.327396     -0.355739 
 C255  C     0.202220      0.297280     -0.302277 
 H256  H    -0.247557      0.142871      0.413298 
 H257  H    -0.235992      0.367363     -0.409416 
 H258  H    -0.003790      0.287861     -0.462778 
 H259  H    -0.041542      0.368443     -0.406988 
 H260  H    -0.386344      0.144333      0.344404 
 H261  H    -0.388055      0.113286      0.434246 
 H262  H     0.014306      0.275930     -0.302791 
 H263  H     0.061924      0.209363     -0.364863 
 H264  H     0.452605      0.171100      0.441726 
 H265  H     0.450102      0.184480      0.350754 
 H266  H     0.475196      0.020389      0.432615 
 H267  H     0.377355      0.052012      0.386103 
 H268  H     0.159941      0.326774     -0.408315 
 H269  H     0.113499      0.392692     -0.345580 
 H270  H     0.176448      0.299488     -0.248675 
 H271  H     0.222762      0.232899     -0.312483 
 H272  H     0.263506      0.335982     -0.304577 
 H273  H     0.470322     -0.053131      0.319433 
 H274  H     0.459640      0.041746      0.272526 
 H275  H    -0.437503      0.016237      0.317496 
 N276  N     0.000997     -0.004775     -0.180990 
 C277  C    -0.021542     -0.088578     -0.206773 
 C278  C    -0.066176      0.054343     -0.210688 
 C279  C     0.091437      0.018036     -0.207604 
 C280  C    -0.067914      0.050218     -0.292090 
 H281  H    -0.133777      0.040351     -0.189436 
 H282  H    -0.047810      0.117374     -0.193516 
 C283  C    -0.015825     -0.091093     -0.288248 
 H284  H     0.024812     -0.134348     -0.182292 
 H285  H    -0.090321     -0.104931     -0.189396 
 C286  C     0.091466      0.020169     -0.289136 
 H287  H     0.111142      0.079185     -0.187083 
 H288  H     0.141228     -0.027668     -0.187308 
 H289  H     0.038797     -0.133391     -0.304402 
 H290  H    -0.079301     -0.115239     -0.311219 
 H291  H    -0.134491      0.028562     -0.311428 
 H292  H    -0.057175      0.112712     -0.314592 
 H293  H     0.145539     -0.019991     -0.309542 
 N294  N     0.002742     -0.007189     -0.317210 
 H295  H     0.105196      0.083715     -0.308353 
 C296  C     0.274281      0.175117     -0.460909 
 C297  C     0.193966      0.180063      0.499304 
 C298  C     0.173795      0.250964      0.458334 
 C299  C     0.236136      0.316986      0.455471 
 C300  C     0.316095      0.312252      0.495750 
 C301  C     0.336689      0.240968     -0.464172 
 O302  O     0.090654      0.251549      0.425590 
 C303  C     0.062285      0.318893      0.381152 
 C304  C    -0.038399      0.305182      0.366252 
 C305  C    -0.080658      0.365876      0.312484 
 C306  C    -0.183131      0.353497      0.302869 
 O307  O     0.420595      0.240618     -0.432952 
 C308  C     0.449694      0.174869     -0.387412 
 C309  C    -0.448152      0.185714     -0.379474 
 C310  C    -0.403550      0.129489     -0.323603 
 C311  C    -0.299877      0.135216     -0.323774 
 H312  H     0.221393      0.372667      0.424172 
 H313  H     0.288980      0.119663     -0.429333 
 H314  H     0.414269      0.181751     -0.337528 
 H315  H     0.433412      0.113634     -0.409405 
 H316  H     0.073467      0.378935      0.406963 
 H317  H     0.102705      0.317119      0.333194 
 H318  H    -0.416526      0.173889     -0.430266 
 H319  H    -0.432852      0.251072     -0.367346 
 H320  H    -0.048863      0.241081      0.348251 
 H321  H    -0.075640      0.309894      0.415606 
 H322  H    -0.067372      0.430252      0.328623 
 H323  H    -0.047458      0.357913      0.261783 
 H324  H    -0.428379      0.146943     -0.271776 
 H325  H    -0.424171      0.064560     -0.331906 
 H326  H    -0.269754      0.099457     -0.280091 
 H327  H    -0.271926      0.110990     -0.372517 
 H328  H    -0.277406      0.199992     -0.319150 
 H329  H    -0.210961      0.395874      0.262541 
 H330  H    -0.198531      0.289603      0.286996 
 H331  H    -0.219512      0.365185      0.351623 
 C332  C     0.306143     -0.263071      0.448817 
 C333  C     0.305478     -0.321421     -0.496378 
 C334  C     0.240646     -0.316401     -0.443262 
 C335  C     0.178704     -0.249815     -0.444296 
 C336  C     0.180253     -0.190970     -0.498766 
 C337  C     0.243777     -0.197076      0.447519 
 O338  O     0.240464     -0.377918     -0.392949 
 C339  C     0.168381     -0.382873     -0.343411 
 C340  C     0.189927     -0.327640     -0.281262 
 C341  C     0.110399     -0.319425     -0.230743 
 C342  C     0.135638     -0.271063     -0.164836 
 O343  O     0.242331     -0.136401      0.396694 
 C344  C     0.310034     -0.134485      0.343944 
 C345  C     0.284164     -0.192563      0.284851 
 C346  C     0.359300     -0.201011      0.230677 
 C347  C     0.328000     -0.248338      0.165881 
 H348  H     0.128650     -0.243790     -0.403057 
 H349  H     0.356540     -0.268454      0.407774 
 H350  H     0.312797     -0.069985      0.324302 
 H351  H     0.377127     -0.149115      0.366952 
 H352  H     0.102895     -0.367079     -0.368653 
 H353  H     0.163649     -0.448321     -0.326339 
 H354  H     0.266868     -0.254720      0.305406 
 H355  H     0.222045     -0.168829      0.258880 
 H356  H     0.249243     -0.353454     -0.252814 
 H357  H     0.210317     -0.265154     -0.299169 
 H358  H     0.053109     -0.288432     -0.257878 
 H359  H     0.086106     -0.381756     -0.215904 
 H360  H     0.383133     -0.138910      0.214881 
 H361  H     0.418322     -0.232492      0.254901 
 H362  H     0.382651     -0.253283      0.127567 
 H363  H     0.305405     -0.311608      0.179125 
 H364  H     0.270741     -0.216316      0.139973 
 H365  H     0.077668     -0.265724     -0.129550 
 H366  H     0.190834     -0.302078     -0.135534 
 H367  H     0.158987     -0.207892     -0.177580 
 N368  N     0.499170     -0.493775     -0.180696 
 C369  C    -0.419618      0.462529     -0.206574 
 C370  C     0.417651      0.463536     -0.208434 
 C371  C     0.499585     -0.407994     -0.209521 
 C372  C     0.419135      0.460691     -0.290043 
 H373  H     0.414578      0.400034     -0.186303 
 H374  H     0.356864      0.496675     -0.190435 
 C375  C    -0.418205      0.463607     -0.288224 
 H376  H    -0.358062      0.492016     -0.184840 
 H377  H    -0.420314      0.397895     -0.186778 
 C378  C     0.497543     -0.408827     -0.291241 
 H379  H     0.440652     -0.373762     -0.189505 
 H380  H    -0.439298     -0.375688     -0.190115 
 H381  H    -0.357728      0.496695     -0.307437 
 H382  H    -0.414363      0.399649     -0.308104 
 H383  H     0.421123      0.395744     -0.307779 
 H384  H     0.357058      0.488873     -0.312855 
 H385  H    -0.444137     -0.374268     -0.312331 
 N386  N     0.499514     -0.495139     -0.317280 
 H387  H     0.435871     -0.377619     -0.311704 
 C388  C    -0.307945     -0.266297     -0.440391 
 C389  C    -0.311795     -0.314416      0.499059 
 C390  C    -0.256629     -0.293990      0.441861 
 C391  C    -0.198876     -0.224841      0.446702 
 C392  C    -0.195132     -0.176623     -0.492943 
 C393  C    -0.250449     -0.196784     -0.435869 
 O394  O    -0.259086     -0.341327      0.382597 
 C395  C    -0.198252     -0.320172      0.326988 
 C396  C    -0.211121     -0.380079      0.267026 
 C397  C    -0.148879     -0.361202      0.205044 
 C398  C    -0.161270     -0.421895      0.144634 
 O399  O    -0.247704     -0.147984     -0.377576 
 C400  C    -0.306685     -0.167987     -0.320638 
 C401  C    -0.294416     -0.103322     -0.264166 
 C402  C    -0.352728     -0.119886     -0.199565 
 C403  C    -0.339550     -0.054894     -0.142480 
 H404  H    -0.154992     -0.208618      0.403094 
 H405  H    -0.351286     -0.282616     -0.396500 
 H406  H    -0.377683     -0.168249     -0.339535 
 H407  H    -0.289552     -0.230372     -0.299959 
 H408  H    -0.212508     -0.256189      0.308718 
 H409  H    -0.127743     -0.323353      0.346862 
 H410  H    -0.222597     -0.100974     -0.248068 
 H411  H    -0.311063     -0.041596     -0.286188 
 H412  H    -0.198887     -0.444103      0.285951 
 H413  H    -0.282212     -0.377239      0.248928 
 H414  H    -0.161752     -0.297433      0.185758 
 H415  H    -0.077580     -0.362611      0.223006 
 H416  H    -0.424819     -0.121829     -0.215357 
 H417  H    -0.336475     -0.181909     -0.177788 
 H418  H    -0.382915     -0.068971     -0.097628 
 H419  H    -0.268881     -0.053486     -0.123279 
 H420  H    -0.356940      0.007881     -0.161622 
 H421  H    -0.115861     -0.406074      0.101393 
 H422  H    -0.146235     -0.486058      0.161418 
 H423  H    -0.231114     -0.420515      0.123720 
loop_  
_geom_bond_atom_site_label_1  
_geom_bond_atom_site_label_2  
Cu0   Cu1 
Cu0   O4 
Cu0   O7 
Cu0   O10 
Cu0   O13 
Cu0   N82 
Cu1   O2 
Cu1   O5 
Cu1   O8 
Cu1   O11 
Cu1   N276 
O2   C3 
C3   O4 
C3   C32 
O5   C6 
C6   O7 
C6   C88 
O8   C9 
C9   O10 
C9   C180 
O11   C12 
C12   O13 
C12   C121 
Cu14   Cu15 
Cu14   O18 
Cu14   O21 
Cu14   O24 
Cu14   O27 
Cu14   N174 
Cu15   O16 
Cu15   O19 
Cu15   O22 
Cu15   O25 
Cu15   N368 
O16   C17 
C17   O18 
C17   C124 
O19   C20 
C20   O21 
C20   C177 
O22   C23 
C23   O24 
C23   C85 
O25   C26 
C26   O27 
C26   C29 
C28   C29 
C28   C33 
C28   H45 
C29   C30 
C30   C31 
C30   O34 
C31   C32 
C31   H44 
C32   C33 
C33   O39 
O34   C35 
C35   C36 
C35   H48 
C35   H49 
C36   C37 
C36   H52 
C36   H53 
C37   C38 
C37   H54 
C37   H55 
C38   H61 
C38   H62 
C38   H63 
O39   C40 
C40   C41 
C40   H46 
C40   H47 
C41   C42 
C41   H50 
C41   H51 
C42   C43 
C42   H56 
C42   H57 
C43   H58 
C43   H59 
C43   H60 
N64   C65 
N64   C66 
N64   C67 
N64   Cu213 
C65   C71 
C65   H72 
C65   H73 
C66   C68 
C66   H69 
C66   H70 
C67   C74 
C67   H75 
C67   H76 
C68   H79 
C68   H80 
C68   N82 
C71   H77 
C71   H78 
C71   N82 
C74   H81 
C74   N82 
C74   H83 
C84   C85 
C84   C89 
C84   H101 
C85   C86 
C86   C87 
C86   O90 
C87   C88 
C87   H100 
C88   C89 
C89   O95 
O90   C91 
C91   C92 
C91   H104 
C91   H105 
C92   C93 
C92   H108 
C92   H109 
C93   C94 
C93   H110 
C93   H111 
C94   H117 
C94   H118 
C94   H119 
O95   C96 
C96   C97 
C96   H102 
C96   H103 
C97   C98 
C97   H106 
C97   H107 
C98   C99 
C98   H112 
C98   H113 
C99   H114 
C99   H115 
C99   H116 
C120   C121 
C120   C125 
C120   H137 
C121   C122 
C122   C123 
C122   O126 
C123   C124 
C123   H136 
C124   C125 
C125   O131 
O126   C127 
C127   C128 
C127   H140 
C127   H141 
C128   C129 
C128   H144 
C128   H145 
C129   C130 
C129   H146 
C129   H147 
C130   H153 
C130   H154 
C130   H155 
O131   C132 
C132   C133 
C132   H138 
C132   H139 
C133   C134 
C133   H142 
C133   H143 
C134   C135 
C134   H148 
C134   H149 
C135   H150 
C135   H151 
C135   H152 
N156   C157 
N156   C158 
N156   C159 
N156   Cu227 
C157   C163 
C157   H164 
C157   H165 
C158   C160 
C158   H161 
C158   H162 
C159   C166 
C159   H167 
C159   H168 
C160   H171 
C160   H172 
C160   N174 
C163   H169 
C163   H170 
C163   N174 
C166   H173 
C166   N174 
C166   H175 
C176   C177 
C176   C181 
C176   H193 
C177   C178 
C178   C179 
C178   O182 
C179   C180 
C179   H192 
C180   C181 
C181   O187 
O182   C183 
C183   C184 
C183   H196 
C183   H197 
C184   C185 
C184   H200 
C184   H201 
C185   C186 
C185   H202 
C185   H203 
C186   H209 
C186   H210 
C186   H211 
O187   C188 
C188   C189 
C188   H194 
C188   H195 
C189   C190 
C189   H198 
C189   H199 
C190   C191 
C190   H204 
C190   H205 
C191   H206 
C191   H207 
C191   H208 
Cu212   Cu213 
Cu212   O216 
Cu212   O219 
Cu212   O222 
Cu212   O225 
Cu212   N294 
Cu213   O214 
Cu213   O217 
Cu213   O220 
Cu213   O223 
O214   C215 
C215   O216 
C215   C244 
O217   C218 
C218   O219 
C218   C297 
O220   C221 
C221   O222 
C221   C392 
O223   C224 
C224   O225 
C224   C336 
Cu226   Cu227 
Cu226   O230 
Cu226   O233 
Cu226   O236 
Cu226   O239 
Cu226   N386 
Cu227   O228 
Cu227   O231 
Cu227   O234 
Cu227   O237 
O228   C229 
C229   O230 
C229   C333 
O231   C232 
C232   O233 
C232   C389 
O234   C235 
C235   O236 
C235   C300 
O237   C238 
C238   O239 
C238   C241 
C240   C241 
C240   C245 
C240   H257 
C241   C242 
C242   C243 
C242   O246 
C243   C244 
C243   H256 
C244   C245 
C245   O251 
O246   C247 
C247   C248 
C247   H260 
C247   H261 
C248   C249 
C248   H264 
C248   H265 
C249   C250 
C249   H266 
C249   H267 
C250   H273 
C250   H274 
C250   H275 
O251   C252 
C252   C253 
C252   H258 
C252   H259 
C253   C254 
C253   H262 
C253   H263 
C254   C255 
C254   H268 
C254   H269 
C255   H270 
C255   H271 
C255   H272 
N276   C277 
N276   C278 
N276   C279 
C277   C283 
C277   H284 
C277   H285 
C278   C280 
C278   H281 
C278   H282 
C279   C286 
C279   H287 
C279   H288 
C280   H291 
C280   H292 
C280   N294 
C283   H289 
C283   H290 
C283   N294 
C286   H293 
C286   N294 
C286   H295 
C296   C297 
C296   C301 
C296   H313 
C297   C298 
C298   C299 
C298   O302 
C299   C300 
C299   H312 
C300   C301 
C301   O307 
O302   C303 
C303   C304 
C303   H316 
C303   H317 
C304   C305 
C304   H320 
C304   H321 
C305   C306 
C305   H322 
C305   H323 
C306   H329 
C306   H330 
C306   H331 
O307   C308 
C308   C309 
C308   H314 
C308   H315 
C309   C310 
C309   H318 
C309   H319 
C310   C311 
C310   H324 
C310   H325 
C311   H326 
C311   H327 
C311   H328 
C332   C333 
C332   C337 
C332   H349 
C333   C334 
C334   C335 
C334   O338 
C335   C336 
C335   H348 
C336   C337 
C337   O343 
O338   C339 
C339   C340 
C339   H352 
C339   H353 
C340   C341 
C340   H356 
C340   H357 
C341   C342 
C341   H358 
C341   H359 
C342   H365 
C342   H366 
C342   H367 
O343   C344 
C344   C345 
C344   H350 
C344   H351 
C345   C346 
C345   H354 
C345   H355 
C346   C347 
C346   H360 
C346   H361 
C347   H362 
C347   H363 
C347   H364 
N368   C369 
N368   C370 
N368   C371 
C369   C375 
C369   H376 
C369   H377 
C370   C372 
C370   H373 
C370   H374 
C371   C378 
C371   H379 
C371   H380 
C372   H383 
C372   H384 
C372   N386 
C375   H381 
C375   H382 
C375   N386 
C378   H385 
C378   N386 
C378   H387 
C388   C389 
C388   C393 
C388   H405 
C389   C390 
C390   C391 
C390   O394 
C391   C392 
C391   H404 
C392   C393 
C393   O399 
O394   C395 
C395   C396 
C395   H408 
C395   H409 
C396   C397 
C396   H412 
C396   H413 
C397   C398 
C397   H414 
C397   H415 
C398   H421 
C398   H422 
C398   H423 
O399   C400 
C400   C401 
C400   H406 
C400   H407 
C401   C402 
C401   H410 
C401   H411 
C402   C403 
C402   H416 
C402   H417 
C403   H418 
C403   H419 
C403   H420 
  
#END  
