data_
_symmetry_cell_setting           triclinic 
_symmetry_space_group_name_H-M   'P 1' 
_symmetry_Int_Tables_number      1 
loop_ 
_symmetry_equiv_pos_site_id 
_symmetry_equiv_pos_as_xyz 
1 x,y,z 
_cell_length_a             18.138118        
_cell_length_b              6.971268        
_cell_length_c             18.732566        
_cell_angle_alpha          97.262886        
_cell_angle_beta           89.952760        
_cell_angle_gamma          90.021714        
loop_  
_atom_site_label   
_atom_site_type_symbol  
_atom_site_fract_x  
_atom_site_fract_y  
_atom_site_fract_z 
 Cu0  Cu    -0.003946      0.051498      0.070084 
 Cu1  Cu     0.002987     -0.056013     -0.069041 
 O2  O    -0.023797      0.216867     -0.079940 
 C3  C    -0.050693      0.308350     -0.022511 
 O4  O    -0.022393      0.309016      0.039619 
 O5  O     0.111510      0.000230     -0.058392 
 C6  C     0.139464      0.054291      0.003407 
 O7  O     0.103150      0.098168      0.061306 
 O8  O    -0.104133     -0.101966     -0.060435 
 C9  C    -0.140459     -0.058846     -0.002501 
 O10  O    -0.112466     -0.005519      0.059345 
 O11  O     0.021381     -0.313507     -0.038408 
 C12  C     0.049832     -0.312676      0.023671 
 O13  O     0.023081     -0.221028      0.081131 
 Cu14  Cu    -0.496919     -0.452130      0.069350 
 Cu15  Cu     0.495836      0.446616     -0.070049 
 O16  O     0.387346     -0.494818     -0.055979 
 C17  C     0.359630     -0.442994      0.006179 
 O18  O     0.396122     -0.401832      0.064106 
 O19  O    -0.476814     -0.279318     -0.078683 
 C20  C    -0.450106     -0.190430     -0.020712 
 O21  O    -0.478623     -0.192660      0.041193 
 O22  O     0.477333      0.186843     -0.041629 
 C23  C     0.449166      0.184848      0.020451 
 O24  O     0.476133      0.274117      0.078188 
 O25  O    -0.397065      0.397594     -0.063665 
 C26  C    -0.360571      0.438342     -0.005776 
 O27  O    -0.388444      0.490043      0.056246 
 C28  C    -0.170455      0.339810     -0.085768 
 C29  C    -0.246978      0.358095     -0.079451 
 C30  C    -0.278240      0.434504     -0.013355 
 C31  C    -0.233652     -0.495631      0.045216 
 C32  C    -0.157048      0.488332      0.038485 
 C33  C    -0.126467      0.393437     -0.025146 
 H34  H    -0.281753      0.305404     -0.125251 
 H35  H    -0.257995     -0.430784      0.095886 
 H36  H    -0.121885     -0.461690      0.084337 
 H37  H    -0.146371      0.267256     -0.135404 
 N38  N    -0.002233      0.179314      0.182867 
 C39  C    -0.033371      0.034835      0.225930 
 C40  C     0.073499      0.226896      0.208830 
 C41  C    -0.047251      0.357219      0.196055 
 C42  C    -0.074926     -0.231972     -0.207735 
 H43  H     0.107674      0.095176      0.199921 
 H44  H     0.097708      0.332524      0.176381 
 C45  C     0.031798     -0.039514     -0.224937 
 H46  H    -0.090092     -0.000763      0.207565 
 H47  H    -0.001136     -0.100034      0.216033 
 C48  C     0.045920     -0.361769     -0.195007 
 H49  H    -0.023931      0.466999      0.164959 
 H50  H    -0.103579      0.325587      0.175737 
 H51  H     0.088584     -0.004088     -0.206738 
 H52  H    -0.000377      0.095428     -0.214911 
 H53  H    -0.109080     -0.100190     -0.199014 
 H54  H    -0.099154     -0.337205     -0.175127 
 H55  H     0.102205     -0.330088     -0.174577 
 N56  N     0.000796     -0.184050     -0.181818 
 H57  H     0.022575     -0.471706     -0.163996 
 C58  C     0.343102      0.003778     -0.040734 
 C59  C     0.266514     -0.012868     -0.047526 
 C60  C     0.221760      0.057667      0.010901 
 C61  C     0.252787      0.134941      0.076947 
 C62  C     0.329252      0.153362      0.083362 
 C63  C     0.373436      0.099354      0.022861 
 H64  H     0.242319     -0.078492     -0.098119 
 H65  H     0.217885      0.188208      0.122640 
 H66  H     0.353121      0.226423      0.132978 
 H67  H     0.378450     -0.046506     -0.086457 
 C68  C     0.246358     -0.361767      0.080097 
 C69  C     0.169849     -0.343311      0.086627 
 C70  C     0.125634     -0.397702      0.026211 
 C71  C     0.155973     -0.493470     -0.037383 
 C72  C     0.232550      0.490164     -0.044329 
 C73  C     0.277340     -0.439174      0.013990 
 H74  H     0.145930     -0.270066      0.136227 
 H75  H     0.120629      0.456043     -0.083047 
 H76  H     0.256711      0.424481     -0.094968 
 H77  H     0.281369     -0.308500      0.125684 
 N78  N     0.497471     -0.317139      0.180668 
 C79  C    -0.426729     -0.314770      0.209731 
 C80  C     0.468190     -0.117157      0.192197 
 C81  C     0.451213     -0.438667      0.222160 
 C82  C     0.467613      0.466918     -0.226456 
 H83  H    -0.497177     -0.023999      0.162572 
 H84  H     0.412411     -0.115370      0.168954 
 C85  C    -0.426709      0.271025     -0.209317 
 H86  H    -0.404612     -0.463402      0.202489 
 H87  H    -0.391082     -0.228229      0.178323 
 C88  C     0.451780      0.145106     -0.196593 
 H89  H     0.394325     -0.440491      0.201368 
 H90  H     0.471324      0.410907      0.213495 
 H91  H    -0.403083      0.164983     -0.176750 
 H92  H    -0.391928      0.401733     -0.200675 
 H93  H    -0.499635     -0.399084     -0.216279 
 H94  H     0.410929     -0.496086     -0.208248 
 H95  H     0.474679      0.034089     -0.165873 
 N96  N     0.497747      0.321373     -0.183358 
 H97  H     0.395641      0.178218     -0.175945 
 C98  C    -0.253787     -0.135100     -0.076594 
 C99  C    -0.330245     -0.153727     -0.083178 
 C100  C    -0.374371     -0.104830     -0.022280 
 C101  C    -0.344093     -0.014437      0.042231 
 C102  C    -0.267540      0.003171      0.049025 
 C103  C    -0.222773     -0.062327     -0.009997 
 H104  H    -0.354167     -0.223032     -0.133390 
 H105  H    -0.379384      0.030208      0.088607 
 H106  H    -0.243363      0.064844      0.100156 
 H107  H    -0.218887     -0.184462     -0.122722 
 Cu108  Cu    -0.004219     -0.452443     -0.429776 
 Cu109  Cu     0.002841      0.447409      0.430823 
 O110  O    -0.024093     -0.278369      0.422844 
 C111  C    -0.051261     -0.190215      0.480720 
 O112  O    -0.023243     -0.192667     -0.457221 
 O113  O     0.110949     -0.492410      0.445562 
 C114  C     0.138874     -0.440870     -0.492459 
 O115  O     0.102629     -0.400207     -0.434307 
 O116  O    -0.104019      0.395867      0.435150 
 C117  C    -0.140288      0.435970      0.493314 
 O118  O    -0.112330      0.486649     -0.444649 
 O119  O     0.021795      0.187612      0.458408 
 C120  C     0.049956      0.185329     -0.479581 
 O121  O     0.022938      0.273648     -0.421669 
 Cu122  Cu    -0.497569      0.050867     -0.430884 
 Cu123  Cu     0.496067     -0.055407      0.429977 
 O124  O     0.387847      0.003720      0.442488 
 C125  C     0.359649      0.056805     -0.495691 
 O126  O     0.395578      0.099900     -0.437519 
 O127  O    -0.476950      0.217775      0.419799 
 C128  C    -0.450181      0.308286      0.477427 
 O129  O    -0.478742      0.308591     -0.460538 
 O130  O     0.476971     -0.313378      0.459890 
 C131  C     0.448793     -0.312844     -0.477891 
 O132  O     0.475862     -0.221992     -0.420512 
 O133  O    -0.396929     -0.103196      0.437653 
 C134  C    -0.361017     -0.060738      0.495815 
 O135  O    -0.389394     -0.007732     -0.442517 
 C136  C    -0.170324     -0.153798      0.417119 
 C137  C    -0.246845     -0.135517      0.422779 
 C138  C    -0.278684     -0.064007      0.489131 
 C139  C    -0.234751      0.000640     -0.451187 
 C140  C    -0.158129     -0.016376     -0.457087 
 C141  C    -0.127024     -0.105483      0.478585 
 H142  H    -0.281152     -0.184118      0.376175 
 H143  H    -0.259636      0.061186     -0.400215 
 H144  H    -0.123481      0.027602     -0.410226 
 H145  H    -0.145757     -0.222161      0.367061 
 N146  N     0.001267     -0.318597     -0.318230 
 C147  C     0.030709     -0.118722     -0.306721 
 C148  C    -0.074547     -0.315954     -0.289076 
 C149  C     0.047381     -0.440388     -0.276803 
 C150  C     0.073119      0.310163      0.290242 
 H151  H    -0.110095     -0.229225     -0.320433 
 H152  H    -0.096789     -0.464490     -0.296360 
 C153  C    -0.032544      0.114178      0.307706 
 H154  H     0.086521     -0.117132     -0.329983 
 H155  H    -0.003799     -0.025349     -0.336304 
 C156  C    -0.048554      0.436101      0.277826 
 H157  H     0.027100      0.409311     -0.285459 
 H158  H     0.104275     -0.442598     -0.297685 
 H159  H    -0.088491      0.113433      0.330705 
 H160  H     0.001581      0.020421      0.337488 
 H161  H     0.108370      0.222512      0.321525 
 H162  H     0.095717      0.458323      0.297743 
 H163  H    -0.105452      0.439422      0.298726 
 N164  N    -0.002757      0.313684      0.319286 
 H165  H    -0.027875     -0.413966      0.286415 
 C166  C     0.341961     -0.491707      0.461743 
 C167  C     0.265326      0.492528      0.455637 
 C168  C     0.221160     -0.437414     -0.485428 
 C169  C     0.252735     -0.361076     -0.419556 
 C170  C     0.329288     -0.342997     -0.413893 
 C171  C     0.372909     -0.397012     -0.474838 
 H172  H     0.240631      0.427810      0.405148 
 H173  H     0.218165     -0.308364     -0.373519 
 H174  H     0.353672     -0.270563     -0.364437 
 H175  H     0.376833      0.458273      0.415623 
 C176  C     0.245848      0.132407     -0.422321 
 C177  C     0.169335      0.150385     -0.416347 
 C178  C     0.125752      0.100718     -0.477542 
 C179  C     0.156576      0.010432      0.458182 
 C180  C     0.233180     -0.006492      0.451971 
 C181  C     0.277360      0.059635     -0.488691 
 H182  H     0.144963      0.219660     -0.366333 
 H183  H     0.121696     -0.034597      0.411579 
 H184  H     0.257851     -0.068088      0.401029 
 H185  H     0.280421      0.182207     -0.376006 
 N186  N     0.497037      0.186891     -0.319786 
 C187  C    -0.427267      0.186865     -0.290586 
 C188  C     0.468677      0.387726     -0.308310 
 C189  C     0.450020      0.066936     -0.278385 
 C190  C     0.467099     -0.037930      0.274002 
 H191  H    -0.496116      0.479683     -0.337891 
 H192  H     0.413011      0.391104     -0.331706 
 C193  C    -0.426307     -0.230720      0.291036 
 H194  H    -0.405863      0.037515     -0.297712 
 H195  H    -0.391081      0.272170     -0.321951 
 C196  C     0.452738     -0.360107      0.303945 
 H197  H     0.393184      0.067303     -0.299218 
 H198  H     0.469321     -0.084210     -0.287043 
 H199  H    -0.402148     -0.336061      0.323586 
 H200  H    -0.392059     -0.099045      0.299684 
 H201  H     0.499340      0.096948      0.284022 
 H202  H     0.410328     -0.002414      0.292295 
 H203  H     0.476010     -0.470219      0.334869 
 N204  N     0.497999     -0.182560      0.317066 
 H205  H     0.396481     -0.328231      0.324487 
 C206  C    -0.254168      0.361577      0.419761 
 C207  C    -0.330731      0.343782      0.413883 
 C208  C    -0.374282      0.392555      0.475235 
 C209  C    -0.343356      0.481697     -0.460395 
 C210  C    -0.266748      0.497975     -0.454250 
 C211  C    -0.222587      0.432921      0.486225 
 H212  H    -0.355204      0.275480      0.363795 
 H213  H    -0.378151     -0.473956     -0.413620 
 H214  H    -0.242052     -0.441598     -0.403200 
 H215  H    -0.219605      0.312775      0.373295 
loop_  
_geom_bond_atom_site_label_1  
_geom_bond_atom_site_label_2  
Cu0   Cu1 
Cu0   O4 
Cu0   O7 
Cu0   O10 
Cu0   O13 
Cu0   N38 
Cu1   O2 
Cu1   O5 
Cu1   O8 
Cu1   O11 
Cu1   N56 
O2   C3 
C3   O4 
C3   C33 
O5   C6 
C6   O7 
C6   C60 
O8   C9 
C9   O10 
C9   C103 
O11   C12 
C12   O13 
C12   C70 
Cu14   Cu15 
Cu14   O18 
Cu14   O21 
Cu14   O24 
Cu14   O27 
Cu14   N78 
Cu15   O16 
Cu15   O19 
Cu15   O22 
Cu15   O25 
Cu15   N96 
O16   C17 
C17   O18 
C17   C73 
O19   C20 
C20   O21 
C20   C100 
O22   C23 
C23   O24 
C23   C63 
O25   C26 
C26   O27 
C26   C30 
C28   C29 
C28   C33 
C28   H37 
C29   C30 
C29   H34 
C30   C31 
C31   C32 
C31   H35 
C32   C33 
C32   H36 
N38   C39 
N38   C40 
N38   C41 
C39   C153 
C39   H46 
C39   H47 
C40   C150 
C40   H43 
C40   H44 
C41   C156 
C41   H49 
C41   H50 
C42   C148 
C42   H53 
C42   H54 
C42   N56 
C45   C147 
C45   H51 
C45   H52 
C45   N56 
C48   C149 
C48   H55 
C48   N56 
C48   H57 
C58   C59 
C58   C63 
C58   H67 
C59   C60 
C59   H64 
C60   C61 
C61   C62 
C61   H65 
C62   C63 
C62   H66 
C68   C69 
C68   C73 
C68   H77 
C69   C70 
C69   H74 
C70   C71 
C71   C72 
C71   H75 
C72   C73 
C72   H76 
N78   C79 
N78   C80 
N78   C81 
C79   C193 
C79   H86 
C79   H87 
C80   C190 
C80   H83 
C80   H84 
C81   C196 
C81   H89 
C81   H90 
C82   C188 
C82   H93 
C82   H94 
C82   N96 
C85   C187 
C85   H91 
C85   H92 
C85   N96 
C88   C189 
C88   H95 
C88   N96 
C88   H97 
C98   C99 
C98   C103 
C98   H107 
C99   C100 
C99   H104 
C100   C101 
C101   C102 
C101   H105 
C102   C103 
C102   H106 
Cu108   Cu109 
Cu108   O112 
Cu108   O115 
Cu108   O118 
Cu108   O121 
Cu108   N146 
Cu109   O110 
Cu109   O113 
Cu109   O116 
Cu109   O119 
Cu109   N164 
O110   C111 
C111   O112 
C111   C141 
O113   C114 
C114   O115 
C114   C168 
O116   C117 
C117   O118 
C117   C211 
O119   C120 
C120   O121 
C120   C178 
Cu122   Cu123 
Cu122   O126 
Cu122   O129 
Cu122   O132 
Cu122   O135 
Cu122   N186 
Cu123   O124 
Cu123   O127 
Cu123   O130 
Cu123   O133 
Cu123   N204 
O124   C125 
C125   O126 
C125   C181 
O127   C128 
C128   O129 
C128   C208 
O130   C131 
C131   O132 
C131   C171 
O133   C134 
C134   O135 
C134   C138 
C136   C137 
C136   C141 
C136   H145 
C137   C138 
C137   H142 
C138   C139 
C139   C140 
C139   H143 
C140   C141 
C140   H144 
N146   C147 
N146   C148 
N146   C149 
C147   H154 
C147   H155 
C148   H151 
C148   H152 
C149   H157 
C149   H158 
C150   H161 
C150   H162 
C150   N164 
C153   H159 
C153   H160 
C153   N164 
C156   H163 
C156   N164 
C156   H165 
C166   C167 
C166   C171 
C166   H175 
C167   C168 
C167   H172 
C168   C169 
C169   C170 
C169   H173 
C170   C171 
C170   H174 
C176   C177 
C176   C181 
C176   H185 
C177   C178 
C177   H182 
C178   C179 
C179   C180 
C179   H183 
C180   C181 
C180   H184 
N186   C187 
N186   C188 
N186   C189 
C187   H194 
C187   H195 
C188   H191 
C188   H192 
C189   H197 
C189   H198 
C190   H201 
C190   H202 
C190   N204 
C193   H199 
C193   H200 
C193   N204 
C196   H203 
C196   N204 
C196   H205 
C206   C207 
C206   C211 
C206   H215 
C207   C208 
C207   H212 
C208   C209 
C209   C210 
C209   H213 
C210   C211 
C210   H214 
  
#END  
