data_
_symmetry_cell_setting           triclinic 
_symmetry_space_group_name_H-M   'P 1' 
_symmetry_Int_Tables_number      1 
loop_ 
_symmetry_equiv_pos_site_id 
_symmetry_equiv_pos_as_xyz 
1 x,y,z 
_cell_length_a             18.374475        
_cell_length_b             10.693879        
_cell_length_c             19.169325        
_cell_angle_alpha          95.185376        
_cell_angle_beta           88.666198        
_cell_angle_gamma          90.757290        
loop_  
_atom_site_label   
_atom_site_type_symbol  
_atom_site_fract_x  
_atom_site_fract_y  
_atom_site_fract_z 
 Cu0  Cu     0.001137      0.010309      0.071884 
 Cu1  Cu     0.000431     -0.002616     -0.064856 
 O2  O    -0.074033      0.131273     -0.049317 
 C3  C    -0.107144      0.149195      0.009856 
 O4  O    -0.084280      0.118316      0.067923 
 O5  O     0.078514      0.122734     -0.059191 
 C6  C     0.101943      0.163186      0.000641 
 O7  O     0.069185      0.154447      0.059362 
 O8  O    -0.077585     -0.126370     -0.053916 
 C9  C    -0.100266     -0.156965      0.005541 
 O10  O    -0.066172     -0.138434      0.062679 
 O11  O     0.076325     -0.132313     -0.057901 
 C12  C     0.109609     -0.138628     -0.000819 
 O13  O     0.087043     -0.096737      0.059923 
 Cu14  Cu     0.499314     -0.488964      0.064530 
 Cu15  Cu    -0.497941      0.494186     -0.072246 
 O16  O     0.419751     -0.391526     -0.062765 
 C17  C     0.396351     -0.345667     -0.003120 
 O18  O     0.426340     -0.355068      0.055437 
 O19  O    -0.428008     -0.361132     -0.062839 
 C20  C    -0.395884     -0.340526     -0.004730 
 O21  O    -0.420102     -0.369730      0.054503 
 O22  O     0.430053      0.355735     -0.060580 
 C23  C     0.396348      0.348392     -0.002254 
 O24  O     0.418859      0.390105      0.057742 
 O25  O    -0.415721      0.380477     -0.065369 
 C26  C    -0.393900      0.352413     -0.006357 
 O27  O    -0.428066      0.373088      0.052112 
 C28  C    -0.192215      0.295176     -0.037655 
 C29  C    -0.181196      0.205089      0.009346 
 C30  C    -0.238453      0.161616      0.050865 
 C31  C    -0.308371      0.209493      0.044034 
 C32  C    -0.319576      0.297892     -0.003914 
 C33  C    -0.262349      0.340384     -0.045747 
 O34  O    -0.222714      0.070940      0.094402 
 C35  C    -0.278100      0.017929      0.137169 
 C36  C    -0.281215      0.086534      0.210533 
 C37  C    -0.286699      0.230250      0.213949 
 C38  C    -0.291056      0.291518      0.289162 
 O39  O    -0.278848      0.424921     -0.092475 
 C40  C    -0.223708      0.491965     -0.128332 
 C41  C    -0.185079      0.415304     -0.189346 
 C42  C    -0.234049      0.340449     -0.242632 
 C43  C    -0.271318      0.224807     -0.215302 
 H44  H    -0.354537      0.178775      0.075349 
 H45  H    -0.146133      0.328246     -0.068089 
 H46  H    -0.251267     -0.427795     -0.147897 
 H47  H    -0.184607     -0.468410     -0.089432 
 H48  H    -0.331245      0.015805      0.112060 
 H49  H    -0.263457     -0.080904      0.140241 
 H50  H    -0.151764      0.481799     -0.217312 
 H51  H    -0.145781      0.350425     -0.170295 
 H52  H    -0.328153      0.049641      0.239290 
 H53  H    -0.232623      0.062636      0.238911 
 H54  H    -0.239159      0.268805      0.186749 
 H55  H    -0.335003      0.256162      0.185889 
 H56  H    -0.275214      0.402811     -0.261084 
 H57  H    -0.200400      0.308906     -0.289017 
 H58  H    -0.300348      0.169802     -0.257222 
 H59  H    -0.231182      0.163218     -0.194714 
 H60  H    -0.311508      0.250117     -0.173299 
 H61  H    -0.294051      0.393960      0.290246 
 H62  H    -0.339773      0.259484      0.316925 
 H63  H    -0.243383      0.268836      0.319026 
 N64  N     0.002841      0.004085      0.320940 
 C65  C     0.063953      0.082668      0.297311 
 C66  C     0.010605     -0.123934      0.285772 
 C67  C    -0.065781      0.056815      0.297817 
 C68  C     0.012208     -0.120377      0.204551 
 H69  H     0.060702     -0.166130      0.303146 
 H70  H    -0.035109     -0.182944      0.302442 
 C71  C     0.063754      0.087367      0.215955 
 H72  H     0.059218      0.177939      0.324033 
 H73  H     0.115565      0.044593      0.314008 
 C74  C    -0.065740      0.058600      0.216482 
 H75  H    -0.112111      0.000780      0.315971 
 H76  H    -0.072090      0.152838      0.323214 
 H77  H     0.057442      0.184729      0.202476 
 H78  H     0.115774      0.053801      0.191736 
 H79  H     0.064065     -0.157588      0.181911 
 H80  H    -0.031581     -0.180447      0.181103 
 H81  H    -0.073402      0.155032      0.202055 
 N82  N     0.003498      0.009387      0.185075 
 H83  H    -0.111107      0.001294      0.193764 
 C84  C     0.228498      0.149168     -0.044904 
 C85  C     0.178013      0.213206      0.000564 
 C86  C     0.197345      0.320342      0.043792 
 C87  C     0.269704      0.362609      0.042458 
 C88  C     0.320277      0.298335     -0.002847 
 C89  C     0.300914      0.191222     -0.046220 
 O90  O     0.143484      0.378109      0.084771 
 C91  C     0.152674     -0.493858      0.112366 
 C92  C     0.084230     -0.454485      0.154569 
 C93  C     0.016559     -0.437248      0.110860 
 C94  C    -0.014739      0.441220      0.073624 
 O95  O     0.354087      0.133864     -0.088394 
 C96  C     0.347937      0.002256     -0.110058 
 C97  C     0.412852     -0.035626     -0.157766 
 C98  C     0.485016     -0.047072     -0.120188 
 C99  C    -0.485402      0.077160     -0.084824 
 H100  H     0.286532      0.445812      0.075703 
 H101  H     0.211459      0.066658     -0.078579 
 H102  H     0.346944     -0.050200     -0.063288 
 H103  H     0.296929     -0.018950     -0.137822 
 H104  H     0.200432     -0.484796      0.145891 
 H105  H     0.162614     -0.433825      0.069347 
 H106  H     0.400597     -0.126270     -0.187106 
 H107  H     0.420198      0.032338     -0.197245 
 H108  H     0.071485      0.476271      0.192405 
 H109  H     0.095613     -0.365735      0.186257 
 H110  H    -0.025597     -0.392830      0.145987 
 H111  H     0.028911     -0.369215      0.072245 
 H112  H     0.478438     -0.116356     -0.081305 
 H113  H    -0.474518     -0.087188     -0.158714 
 H114  H     0.477329      0.117244     -0.043411 
 H115  H    -0.433086      0.064253     -0.060052 
 H116  H    -0.477044      0.147746     -0.122590 
 H117  H     0.023354      0.397028      0.034191 
 H118  H    -0.028220      0.371583      0.110864 
 H119  H    -0.064699      0.459583      0.046085 
 C120  C     0.272505     -0.343879     -0.049288 
 C121  C     0.323545     -0.286065     -0.003417 
 C122  C     0.307064     -0.177866      0.040497 
 C123  C     0.236399     -0.130030      0.040471 
 C124  C     0.184731     -0.190030     -0.004149 
 C125  C     0.202020     -0.296756     -0.048847 
 O126  O     0.362216     -0.125498      0.080691 
 C127  C     0.356686      0.000063      0.113254 
 C128  C     0.424704      0.030283      0.156152 
 C129  C     0.495500      0.048965      0.113765 
 C130  C    -0.475068     -0.071297      0.073963 
 O131  O     0.151476     -0.353660     -0.092536 
 C132  C     0.127895     -0.476616     -0.076744 
 C133  C     0.083449      0.459702     -0.136111 
 C134  C     0.021898     -0.460806     -0.161265 
 C135  C    -0.033211     -0.416912     -0.103334 
 H136  H     0.221817     -0.046581      0.074744 
 H137  H     0.286196     -0.426820     -0.084376 
 H138  H     0.175290      0.465652     -0.067453 
 H139  H     0.094900     -0.466355     -0.028034 
 H140  H     0.351093      0.065704      0.072630 
 H141  H     0.307792      0.007573      0.147565 
 H142  H     0.120080      0.431730     -0.180811 
 H143  H     0.060184      0.372010     -0.118668 
 H144  H     0.415248      0.115916      0.191203 
 H145  H     0.432840     -0.045125      0.190566 
 H146  H     0.486988      0.120568      0.077002 
 H147  H    -0.462670      0.088451      0.149869 
 H148  H     0.045463     -0.378640     -0.184600 
 H149  H    -0.006499      0.483837     -0.203754 
 H150  H    -0.057990     -0.496780     -0.079031 
 H151  H    -0.007393     -0.355508     -0.061689 
 H152  H    -0.076969     -0.362887     -0.124035 
 H153  H    -0.463629     -0.142808      0.109814 
 H154  H     0.486210     -0.112924      0.035554 
 H155  H    -0.424454     -0.052966      0.044857 
 N156  N     0.499813     -0.488596      0.314944 
 C157  C    -0.434250     -0.424824      0.288987 
 C158  C     0.497557      0.381857      0.280637 
 C159  C     0.435681     -0.421089      0.292756 
 C160  C     0.493713      0.382956      0.199440 
 H161  H    -0.453620      0.331998      0.294875 
 H162  H     0.450351      0.330818      0.301004 
 C163  C    -0.432991     -0.429698      0.207187 
 H164  H    -0.433907     -0.326514      0.312064 
 H165  H    -0.385379     -0.468774      0.307774 
 C166  C     0.436984     -0.415501      0.211404 
 H167  H     0.386040     -0.469437      0.310120 
 H168  H     0.435065     -0.325589      0.319778 
 H169  H    -0.426163     -0.334508      0.189956 
 H170  H    -0.386593     -0.485386      0.184725 
 H171  H    -0.462292      0.326013      0.173338 
 H172  H     0.441998      0.340580      0.180559 
 H173  H     0.441910     -0.317434      0.198124 
 N174  N     0.499066     -0.487197      0.178595 
 H175  H     0.385911     -0.453450      0.188455 
 C176  C    -0.273369     -0.341636      0.042060 
 C177  C    -0.319756     -0.290209     -0.004273 
 C178  C    -0.295412     -0.196763     -0.046186 
 C179  C    -0.223214     -0.154637     -0.039819 
 C180  C    -0.176741     -0.205979      0.006494 
 C181  C    -0.201360     -0.298624      0.048907 
 O182  O    -0.342798     -0.148116     -0.090627 
 C183  C    -0.315933     -0.059632     -0.137630 
 C184  C    -0.269798     -0.126063     -0.196565 
 C185  C    -0.311903     -0.225535     -0.242619 
 C186  C    -0.262830     -0.296902     -0.297610 
 O187  O    -0.154465     -0.345767      0.094285 
 C188  C    -0.180873     -0.435278      0.140974 
 C189  C    -0.230142     -0.372506      0.198662 
 C190  C    -0.193759     -0.264089      0.243386 
 C191  C    -0.246458     -0.199437      0.297692 
 H192  H    -0.202553     -0.079665     -0.070260 
 H193  H    -0.293927     -0.417461      0.071940 
 H194  H    -0.208314      0.485603      0.110989 
 H195  H    -0.133407     -0.475196      0.164510 
 H196  H    -0.362994     -0.016264     -0.159878 
 H197  H    -0.286140      0.017414     -0.108261 
 H198  H    -0.279542     -0.336647      0.176413 
 H199  H    -0.249069     -0.443991      0.232898 
 H200  H    -0.247014     -0.055810     -0.229776 
 H201  H    -0.222727     -0.171222     -0.175278 
 H202  H    -0.338200     -0.292451     -0.209359 
 H203  H    -0.356093     -0.180678     -0.268631 
 H204  H    -0.146770     -0.299154      0.269990 
 H205  H    -0.171946     -0.194750      0.209061 
 H206  H    -0.269316     -0.266028      0.332928 
 H207  H    -0.219119     -0.123772      0.330130 
 H208  H    -0.292200     -0.158888      0.271973 
 H209  H    -0.294576     -0.362672     -0.332596 
 H210  H    -0.233659     -0.232571     -0.330286 
 H211  H    -0.221889     -0.350299     -0.272345 
 Cu212  Cu     0.000021     -0.002642     -0.429412 
 Cu213  Cu     0.003873     -0.009003      0.433917 
 O214  O    -0.080818      0.098644      0.444248 
 C215  C    -0.106387      0.138576     -0.495951 
 O216  O    -0.076924      0.127743     -0.437192 
 O217  O     0.070028      0.139825      0.453529 
 C218  C     0.104542      0.152089     -0.489270 
 O219  O     0.080752      0.119337     -0.430711 
 O220  O    -0.065509     -0.153745      0.439883 
 C221  C    -0.099218     -0.165771      0.497795 
 O222  O    -0.077341     -0.127820     -0.441469 
 O223  O     0.088472     -0.117199      0.436398 
 C224  C     0.109054     -0.151323      0.494596 
 O225  O     0.072946     -0.139533     -0.447652 
 Cu226  Cu    -0.499173      0.498608     -0.435084 
 Cu227  Cu    -0.496445      0.497679      0.428389 
 O228  O     0.431196     -0.364459      0.449363 
 C229  C     0.396671     -0.352240     -0.491970 
 O230  O     0.418538     -0.387793     -0.434637 
 O231  O    -0.417653     -0.379736      0.440429 
 C232  C    -0.394004     -0.346000     -0.498948 
 O233  O    -0.426335     -0.360969     -0.440696 
 O234  O     0.422318      0.377131      0.428346 
 C235  C     0.398184      0.341933      0.486195 
 O236  O     0.431518      0.354278     -0.455946 
 O237  O    -0.420366      0.364161      0.434632 
 C238  C    -0.391477      0.348689      0.493127 
 O239  O    -0.417222      0.385385     -0.446622 
 C240  C    -0.231466      0.130579      0.458132 
 C241  C    -0.180564      0.193097     -0.497280 
 C242  C    -0.196906      0.305652     -0.457473 
 C243  C    -0.266591      0.355693     -0.461614 
 C244  C    -0.317523      0.293049      0.494077 
 C245  C    -0.301411      0.179851      0.454824 
 O246  O    -0.142230      0.361276     -0.417959 
 C247  C    -0.149484      0.489193     -0.390055 
 C248  C    -0.081699     -0.468579     -0.349578 
 C249  C    -0.013060     -0.447632     -0.394681 
 C250  C     0.018663      0.432064     -0.432487 
 O251  O    -0.355790      0.126111      0.414402 
 C252  C    -0.363881     -0.007626      0.402959 
 C253  C    -0.438277     -0.045407      0.431594 
 C254  C     0.497991      0.034390      0.411046 
 C255  C     0.486860      0.030658      0.331900 
 H256  H    -0.281183      0.443171     -0.430938 
 H257  H    -0.217076      0.044581      0.426052 
 H258  H    -0.359560     -0.033135      0.346217 
 H259  H    -0.320526     -0.056680      0.427761 
 H260  H    -0.158163     -0.451239     -0.433007 
 H261  H    -0.197704      0.495570     -0.355041 
 H262  H    -0.449358     -0.144837      0.414582 
 H263  H    -0.436787     -0.040063      0.489064 
 H264  H    -0.093963     -0.380465     -0.317531 
 H265  H    -0.069680      0.462117     -0.312427 
 H266  H    -0.025133     -0.380702     -0.433173 
 H267  H     0.028738     -0.401209     -0.360900 
 H268  H     0.448046      0.001818      0.436846 
 H269  H    -0.494003      0.132466      0.432731 
 H270  H    -0.465468      0.068665      0.304916 
 H271  H     0.477145     -0.065831      0.308921 
 H272  H     0.439912      0.087651      0.320751 
 H273  H    -0.019653      0.385248     -0.469730 
 H274  H     0.068297      0.452527     -0.462526 
 H275  H     0.032629      0.364227     -0.395272 
 N276  N    -0.003266     -0.001201     -0.178916 
 C277  C    -0.067843     -0.070428     -0.207310 
 C278  C    -0.005695      0.128094     -0.200622 
 C279  C     0.062602     -0.062543     -0.210953 
 C280  C    -0.007193      0.126714     -0.282170 
 H281  H    -0.054040      0.175840     -0.176410 
 H282  H     0.042156      0.181017     -0.180043 
 C283  C    -0.068575     -0.072151     -0.288996 
 H284  H    -0.067414     -0.166978     -0.191408 
 H285  H    -0.117162     -0.025398     -0.183375 
 C286  C     0.061710     -0.064351     -0.292545 
 H287  H     0.111145     -0.012141     -0.189798 
 H288  H     0.065245     -0.158939     -0.195131 
 H289  H    -0.067946     -0.169479     -0.313369 
 H290  H    -0.118629     -0.029138     -0.306091 
 H291  H    -0.057050      0.171523     -0.298376 
 H292  H     0.038944      0.181250     -0.301869 
 H293  H     0.063363     -0.161904     -0.316675 
 N294  N    -0.004597     -0.003619     -0.315350 
 H295  H     0.110186     -0.016047     -0.312458 
 C296  C     0.307944      0.200263     -0.463578 
 C297  C     0.322616      0.288209      0.488229 
 C298  C     0.267202      0.332516      0.447909 
 C299  C     0.195649      0.289770      0.458167 
 C300  C     0.180803      0.202636     -0.493156 
 C301  C     0.236356      0.157857     -0.453168 
 O302  O     0.285637      0.417562      0.400911 
 C303  C     0.230848      0.489524      0.371216 
 C304  C     0.192866      0.418848      0.309004 
 C305  C     0.242356      0.374025      0.246181 
 C306  C     0.289931      0.261214      0.256408 
 O307  O     0.218375      0.072237     -0.406410 
 C308  C     0.274175      0.007897     -0.373261 
 C309  C     0.306720      0.086733     -0.310837 
 C310  C     0.254333      0.117958     -0.248251 
 C311  C     0.196738      0.215735     -0.259503 
 H312  H     0.150950      0.323658      0.428721 
 H313  H     0.352658      0.166872     -0.433866 
 H314  H     0.248800     -0.078233     -0.355994 
 H315  H     0.316564     -0.022849     -0.412432 
 H316  H     0.191416     -0.477928      0.412832 
 H317  H     0.258261     -0.425607      0.354536 
 H318  H     0.352629      0.034069     -0.292861 
 H319  H     0.330440      0.175096     -0.326663 
 H320  H     0.161753      0.337397      0.325086 
 H321  H     0.152014      0.482421      0.291025 
 H322  H     0.207560      0.347330      0.201253 
 H323  H     0.276957      0.452468      0.231412 
 H324  H     0.227770      0.030978     -0.233690 
 H325  H     0.286652      0.154017     -0.203071 
 H326  H     0.161423      0.232191     -0.212674 
 H327  H     0.222466      0.305737     -0.269361 
 H328  H     0.162115      0.186823     -0.304101 
 H329  H     0.322945      0.236623      0.208845 
 H330  H     0.327113      0.279511      0.300262 
 H331  H     0.256170      0.178858      0.266008 
 C332  C     0.194953     -0.296278     -0.457698 
 C333  C     0.183761     -0.203922      0.496789 
 C334  C     0.241123     -0.157151      0.456782 
 C335  C     0.311182     -0.204482      0.462781 
 C336  C     0.322362     -0.297229     -0.491956 
 C337  C     0.265074     -0.343099     -0.451340 
 O338  O     0.225695     -0.063581      0.415356 
 C339  C     0.281577     -0.012261      0.372875 
 C340  C     0.299211     -0.104430      0.309489 
 C341  C     0.234145     -0.136370      0.262197 
 C342  C     0.249369     -0.245559      0.206868 
 O343  O     0.280438     -0.433353     -0.407717 
 C344  C     0.223153      0.491941     -0.380248 
 C345  C     0.186782     -0.446079     -0.313673 
 C346  C     0.238110     -0.413579     -0.252373 
 C347  C     0.282490     -0.292183     -0.256904 
 H348  H     0.357325     -0.170085      0.432737 
 H349  H     0.148814     -0.330743     -0.427757 
 H350  H     0.183043      0.468018     -0.421192 
 H351  H     0.248193      0.403050     -0.369368 
 H352  H     0.260358      0.075969      0.356618 
 H353  H     0.329711      0.013189      0.404406 
 H354  H     0.158054     -0.360347     -0.324024 
 H355  H     0.144069      0.489050     -0.297046 
 H356  H     0.343294     -0.064638      0.278299 
 H357  H     0.320554     -0.192253      0.326300 
 H358  H     0.186541     -0.160456      0.294462 
 H359  H     0.219386     -0.052672      0.236470 
 H360  H     0.205247     -0.404300     -0.203727 
 H361  H     0.274797     -0.492538     -0.247407 
 H362  H     0.246624     -0.211171     -0.258566 
 H363  H     0.316491     -0.274076     -0.210668 
 H364  H     0.318406     -0.296232     -0.303621 
 H365  H     0.255446     -0.333663      0.231308 
 H366  H     0.204875     -0.257895      0.169533 
 H367  H     0.299793     -0.230058      0.176934 
 N368  N     0.497561      0.494504     -0.185218 
 C369  C    -0.433570      0.443211     -0.216273 
 C370  C     0.436821      0.416986     -0.215563 
 C371  C     0.489735     -0.376233     -0.205723 
 C372  C     0.436954      0.418896     -0.297108 
 H373  H     0.442199      0.320078     -0.201044 
 H374  H     0.385047      0.452642     -0.191788 
 C375  C    -0.433374      0.443525     -0.297672 
 H376  H    -0.387628      0.499438     -0.193844 
 H377  H    -0.427039      0.346847     -0.201361 
 C378  C     0.491291     -0.375083     -0.287066 
 H379  H     0.438120     -0.337490     -0.183455 
 H380  H    -0.466316     -0.316196     -0.182522 
 H381  H    -0.386798      0.498383     -0.316270 
 H382  H    -0.427654      0.347251     -0.322440 
 H383  H     0.441573      0.322763     -0.322849 
 H384  H     0.385595      0.456888     -0.314460 
 H385  H    -0.462742     -0.317302     -0.304347 
 N386  N     0.498365      0.496135     -0.321276 
 H387  H     0.441334     -0.333053     -0.304742 
 C388  C    -0.225577     -0.148327     -0.458791 
 C389  C    -0.175311     -0.215005      0.496710 
 C390  C    -0.194915     -0.322917      0.454310 
 C391  C    -0.267282     -0.365156      0.457615 
 C392  C    -0.317771     -0.297407     -0.498487 
 C393  C    -0.298540     -0.187364     -0.457685 
 O394  O    -0.141503     -0.381089      0.412536 
 C395  C    -0.155465      0.497877      0.376701 
 C396  C    -0.091222      0.456795      0.328447 
 C397  C    -0.019494      0.433810      0.364941 
 C398  C     0.017370     -0.447371      0.399382 
 O399  O    -0.352587     -0.121269     -0.420654 
 C400  C    -0.335876      0.000549     -0.386717 
 C401  C    -0.403901      0.079057     -0.369999 
 C402  C    -0.464490      0.020976     -0.325991 
 C403  C     0.487287     -0.075988     -0.367603 
 H404  H    -0.284586     -0.450065      0.426079 
 H405  H    -0.207788     -0.065095     -0.426047 
 H406  H    -0.306537     -0.012744     -0.338595 
 H407  H    -0.299442      0.051833     -0.420811 
 H408  H    -0.166132      0.429740      0.415643 
 H409  H    -0.204488     -0.496357      0.345423 
 H410  H    -0.385823      0.167689     -0.341888 
 H411  H    -0.427063      0.106051     -0.418900 
 H412  H    -0.107117      0.369718      0.297119 
 H413  H    -0.081143     -0.473200      0.290507 
 H414  H    -0.029271      0.366060      0.404258 
 H415  H     0.018599      0.387971      0.325836 
 H416  H    -0.440306     -0.021597     -0.281932 
 H417  H    -0.499242      0.097137     -0.302195 
 H418  H     0.444428     -0.113048     -0.334019 
 H419  H     0.460503     -0.034566     -0.410587 
 H420  H    -0.481402     -0.156581     -0.390839 
 H421  H     0.069250     -0.469584      0.422342 
 H422  H     0.028760     -0.378100      0.361449 
 H423  H    -0.016300     -0.401314      0.441994 
loop_  
_geom_bond_atom_site_label_1  
_geom_bond_atom_site_label_2  
Cu0   Cu1 
Cu0   O4 
Cu0   O7 
Cu0   O10 
Cu0   O13 
Cu0   N82 
Cu1   O2 
Cu1   O5 
Cu1   O8 
Cu1   O11 
Cu1   N276 
O2   C3 
C3   O4 
C3   C29 
O5   C6 
C6   O7 
C6   C85 
O8   C9 
C9   O10 
C9   C180 
O11   C12 
C12   O13 
C12   C124 
Cu14   Cu15 
Cu14   O18 
Cu14   O21 
Cu14   O24 
Cu14   O27 
Cu14   N174 
Cu15   O16 
Cu15   O19 
Cu15   O22 
Cu15   O25 
Cu15   N368 
O16   C17 
C17   O18 
C17   C121 
O19   C20 
C20   O21 
C20   C177 
O22   C23 
C23   O24 
C23   C88 
O25   C26 
C26   O27 
C26   C32 
C28   C29 
C28   C33 
C28   H45 
C29   C30 
C30   C31 
C30   O34 
C31   C32 
C31   H44 
C32   C33 
C33   O39 
O34   C35 
C35   C36 
C35   H48 
C35   H49 
C36   C37 
C36   H52 
C36   H53 
C37   C38 
C37   H54 
C37   H55 
C38   H61 
C38   H62 
C38   H63 
O39   C40 
C40   C41 
C40   H46 
C40   H47 
C41   C42 
C41   H50 
C41   H51 
C42   C43 
C42   H56 
C42   H57 
C43   H58 
C43   H59 
C43   H60 
N64   C65 
N64   C66 
N64   C67 
N64   Cu213 
C65   C71 
C65   H72 
C65   H73 
C66   C68 
C66   H69 
C66   H70 
C67   C74 
C67   H75 
C67   H76 
C68   H79 
C68   H80 
C68   N82 
C71   H77 
C71   H78 
C71   N82 
C74   H81 
C74   N82 
C74   H83 
C84   C85 
C84   C89 
C84   H101 
C85   C86 
C86   C87 
C86   O90 
C87   C88 
C87   H100 
C88   C89 
C89   O95 
O90   C91 
C91   C92 
C91   H104 
C91   H105 
C92   C93 
C92   H108 
C92   H109 
C93   C94 
C93   H110 
C93   H111 
C94   H117 
C94   H118 
C94   H119 
O95   C96 
C96   C97 
C96   H102 
C96   H103 
C97   C98 
C97   H106 
C97   H107 
C98   C99 
C98   H112 
C98   H113 
C99   H114 
C99   H115 
C99   H116 
C120   C121 
C120   C125 
C120   H137 
C121   C122 
C122   C123 
C122   O126 
C123   C124 
C123   H136 
C124   C125 
C125   O131 
O126   C127 
C127   C128 
C127   H140 
C127   H141 
C128   C129 
C128   H144 
C128   H145 
C129   C130 
C129   H146 
C129   H147 
C130   H153 
C130   H154 
C130   H155 
O131   C132 
C132   C133 
C132   H138 
C132   H139 
C133   C134 
C133   H142 
C133   H143 
C134   C135 
C134   H148 
C134   H149 
C135   H150 
C135   H151 
C135   H152 
N156   C157 
N156   C158 
N156   C159 
N156   Cu227 
C157   C163 
C157   H164 
C157   H165 
C158   C160 
C158   H161 
C158   H162 
C159   C166 
C159   H167 
C159   H168 
C160   H171 
C160   H172 
C160   N174 
C163   H169 
C163   H170 
C163   N174 
C166   H173 
C166   N174 
C166   H175 
C176   C177 
C176   C181 
C176   H193 
C177   C178 
C178   C179 
C178   O182 
C179   C180 
C179   H192 
C180   C181 
C181   O187 
O182   C183 
C183   C184 
C183   H196 
C183   H197 
C184   C185 
C184   H200 
C184   H201 
C185   C186 
C185   H202 
C185   H203 
C186   H209 
C186   H210 
C186   H211 
O187   C188 
C188   C189 
C188   H194 
C188   H195 
C189   C190 
C189   H198 
C189   H199 
C190   C191 
C190   H204 
C190   H205 
C191   H206 
C191   H207 
C191   H208 
Cu212   Cu213 
Cu212   O216 
Cu212   O219 
Cu212   O222 
Cu212   O225 
Cu212   N294 
Cu213   O214 
Cu213   O217 
Cu213   O220 
Cu213   O223 
O214   C215 
C215   O216 
C215   C241 
O217   C218 
C218   O219 
C218   C300 
O220   C221 
C221   O222 
C221   C389 
O223   C224 
C224   O225 
C224   C333 
Cu226   Cu227 
Cu226   O230 
Cu226   O233 
Cu226   O236 
Cu226   O239 
Cu226   N386 
Cu227   O228 
Cu227   O231 
Cu227   O234 
Cu227   O237 
O228   C229 
C229   O230 
C229   C336 
O231   C232 
C232   O233 
C232   C392 
O234   C235 
C235   O236 
C235   C297 
O237   C238 
C238   O239 
C238   C244 
C240   C241 
C240   C245 
C240   H257 
C241   C242 
C242   C243 
C242   O246 
C243   C244 
C243   H256 
C244   C245 
C245   O251 
O246   C247 
C247   C248 
C247   H260 
C247   H261 
C248   C249 
C248   H264 
C248   H265 
C249   C250 
C249   H266 
C249   H267 
C250   H273 
C250   H274 
C250   H275 
O251   C252 
C252   C253 
C252   H258 
C252   H259 
C253   C254 
C253   H262 
C253   H263 
C254   C255 
C254   H268 
C254   H269 
C255   H270 
C255   H271 
C255   H272 
N276   C277 
N276   C278 
N276   C279 
C277   C283 
C277   H284 
C277   H285 
C278   C280 
C278   H281 
C278   H282 
C279   C286 
C279   H287 
C279   H288 
C280   H291 
C280   H292 
C280   N294 
C283   H289 
C283   H290 
C283   N294 
C286   H293 
C286   N294 
C286   H295 
C296   C297 
C296   C301 
C296   H313 
C297   C298 
C298   C299 
C298   O302 
C299   C300 
C299   H312 
C300   C301 
C301   O307 
O302   C303 
C303   C304 
C303   H316 
C303   H317 
C304   C305 
C304   H320 
C304   H321 
C305   C306 
C305   H322 
C305   H323 
C306   H329 
C306   H330 
C306   H331 
O307   C308 
C308   C309 
C308   H314 
C308   H315 
C309   C310 
C309   H318 
C309   H319 
C310   C311 
C310   H324 
C310   H325 
C311   H326 
C311   H327 
C311   H328 
C332   C333 
C332   C337 
C332   H349 
C333   C334 
C334   C335 
C334   O338 
C335   C336 
C335   H348 
C336   C337 
C337   O343 
O338   C339 
C339   C340 
C339   H352 
C339   H353 
C340   C341 
C340   H356 
C340   H357 
C341   C342 
C341   H358 
C341   H359 
C342   H365 
C342   H366 
C342   H367 
O343   C344 
C344   C345 
C344   H350 
C344   H351 
C345   C346 
C345   H354 
C345   H355 
C346   C347 
C346   H360 
C346   H361 
C347   H362 
C347   H363 
C347   H364 
N368   C369 
N368   C370 
N368   C371 
C369   C375 
C369   H376 
C369   H377 
C370   C372 
C370   H373 
C370   H374 
C371   C378 
C371   H379 
C371   H380 
C372   H383 
C372   H384 
C372   N386 
C375   H381 
C375   H382 
C375   N386 
C378   H385 
C378   N386 
C378   H387 
C388   C389 
C388   C393 
C388   H405 
C389   C390 
C390   C391 
C390   O394 
C391   C392 
C391   H404 
C392   C393 
C393   O399 
O394   C395 
C395   C396 
C395   H408 
C395   H409 
C396   C397 
C396   H412 
C396   H413 
C397   C398 
C397   H414 
C397   H415 
C398   H421 
C398   H422 
C398   H423 
O399   C400 
C400   C401 
C400   H406 
C400   H407 
C401   C402 
C401   H410 
C401   H411 
C402   C403 
C402   H416 
C402   H417 
C403   H418 
C403   H419 
C403   H420 
  
#END  
