data_
_symmetry_cell_setting           triclinic 
_symmetry_space_group_name_H-M   'P 1' 
_symmetry_Int_Tables_number      1 
loop_ 
_symmetry_equiv_pos_site_id 
_symmetry_equiv_pos_as_xyz 
1 x,y,z 
_cell_length_a             15.041966        
_cell_length_b             15.688043        
_cell_length_c             19.192486        
_cell_angle_alpha          89.988447        
_cell_angle_beta           87.830501        
_cell_angle_gamma          89.808446        
loop_  
_atom_site_label   
_atom_site_type_symbol  
_atom_site_fract_x  
_atom_site_fract_y  
_atom_site_fract_z 
 Cu0  Cu    -0.000639     -0.002066      0.059915 
 Cu1  Cu     0.004296     -0.001077     -0.076148 
 O2  O    -0.082954      0.093397     -0.063711 
 C3  C    -0.121486      0.109945     -0.004983 
 O4  O    -0.110048      0.069013      0.051364 
 O5  O     0.104933      0.082441     -0.063758 
 C6  C     0.114778      0.120310     -0.005775 
 O7  O     0.072138      0.103072      0.051075 
 O8  O    -0.095661     -0.084903     -0.065017 
 C9  C    -0.109759     -0.123573     -0.007214 
 O10  O    -0.071181     -0.108427      0.049402 
 O11  O     0.091815     -0.094966     -0.068605 
 C12  C     0.126393     -0.111008     -0.010474 
 O13  O     0.107554     -0.073431      0.047188 
 Cu14  Cu     0.497225     -0.498201      0.075400 
 Cu15  Cu    -0.494978     -0.499384     -0.060654 
 O16  O     0.397104     -0.426711     -0.049716 
 C17  C     0.376820     -0.389041      0.007661 
 O18  O     0.410487     -0.404382      0.066234 
 O19  O    -0.423753     -0.393307     -0.050283 
 C20  C    -0.387133     -0.376860      0.006928 
 O21  O    -0.402731     -0.414574      0.064934 
 O22  O     0.430627      0.396616     -0.051525 
 C23  C     0.386935      0.380396      0.005082 
 O24  O     0.396303      0.418783      0.062885 
 O25  O    -0.386199      0.428749     -0.049178 
 C26  C    -0.374797      0.389962      0.008222 
 O27  O    -0.415399      0.407040      0.066003 
 C28  C    -0.250618      0.185652      0.052841 
 C29  C    -0.185001      0.184099     -0.000929 
 C30  C    -0.179467      0.250583     -0.049841 
 C31  C    -0.241924      0.317054     -0.046360 
 C32  C    -0.308371      0.318052      0.006785 
 C33  C    -0.313201      0.252036      0.056242 
 O34  O    -0.115864      0.248560     -0.102509 
 C35  C    -0.042425      0.305739     -0.096483 
 C36  C     0.030402      0.278504     -0.149011 
 C37  C     0.108828      0.340431     -0.155262 
 C38  C     0.184649      0.308516     -0.204188 
 O39  O    -0.377111      0.253272      0.108692 
 C40  C    -0.448746      0.193970      0.102146 
 C41  C     0.473881      0.223496      0.149514 
 C42  C     0.395140      0.161736      0.153183 
 C43  C     0.315889      0.195261      0.197785 
 H44  H    -0.237975      0.367543     -0.085318 
 H45  H    -0.254848      0.134949      0.091626 
 H46  H    -0.468960      0.192333      0.047664 
 H47  H    -0.426016      0.129634      0.116200 
 H48  H    -0.064717      0.371570     -0.105733 
 H49  H    -0.017774      0.302070     -0.043346 
 H50  H     0.496555      0.235086      0.202533 
 H51  H     0.450335      0.285153      0.129858 
 H52  H     0.055726      0.215961     -0.132811 
 H53  H     0.002695      0.269479     -0.200753 
 H54  H     0.085078      0.402610     -0.173692 
 H55  H     0.134580      0.350776     -0.103023 
 H56  H     0.373590      0.149822      0.099897 
 H57  H     0.417091      0.100077      0.173979 
 H58  H     0.261132      0.149101      0.199750 
 H59  H     0.334312      0.208239      0.251614 
 H60  H     0.290132      0.254811      0.176062 
 H61  H     0.238564      0.355436     -0.208635 
 H62  H     0.213135      0.249066     -0.184485 
 H63  H     0.161777      0.296002     -0.256904 
 N64  N     0.017383      0.000963      0.309964 
 C65  C     0.007709     -0.086594      0.282540 
 C66  C    -0.056955      0.053625      0.285408 
 C67  C     0.101172      0.036567      0.279581 
 C68  C    -0.060128      0.051346      0.204143 
 H69  H    -0.120096      0.030627      0.309543 
 H70  H    -0.048025      0.119652      0.303572 
 C71  C     0.009861     -0.086444      0.201012 
 H72  H     0.061229     -0.127260      0.302170 
 H73  H    -0.055454     -0.113474      0.303307 
 C74  C     0.098606      0.039773      0.198081 
 H75  H     0.111379      0.100886      0.300987 
 H76  H     0.157155     -0.003082      0.296384 
 H77  H     0.067696     -0.122921      0.180142 
 H78  H    -0.049709     -0.117792      0.181465 
 H79  H    -0.122555      0.022065      0.188153 
 H80  H    -0.058633      0.116476      0.182419 
 H81  H     0.156023      0.005706      0.173780 
 N82  N     0.015439      0.001661      0.173633 
 H83  H     0.102639      0.106266      0.179618 
 C84  C     0.236762      0.324022      0.040721 
 C85  C     0.317425      0.311770      0.003075 
 C86  C     0.332551      0.237872     -0.037036 
 C87  C     0.264458      0.177124     -0.041319 
 C88  C     0.183727      0.189438     -0.003828 
 C89  C     0.168431      0.263471      0.036165 
 O90  O     0.414857      0.228642     -0.069480 
 C91  C     0.442115      0.146546     -0.095085 
 C92  C    -0.457239      0.146449     -0.106981 
 C93  C    -0.419780      0.058992     -0.129232 
 C94  C    -0.318096      0.053990     -0.128560 
 O95  O     0.085806      0.273013      0.068157 
 C96  C     0.059772      0.354361      0.096255 
 C97  C    -0.041192      0.357263      0.105804 
 C98  C    -0.076449      0.443506      0.133110 
 C99  C    -0.177097      0.454394      0.126531 
 H100  H     0.274645      0.119433     -0.072478 
 H101  H     0.226904      0.381478      0.072239 
 H102  H     0.091426      0.362911      0.146484 
 H103  H     0.082781      0.405347      0.060541 
 H104  H     0.421879      0.097141     -0.056966 
 H105  H     0.408925      0.134050     -0.144109 
 H106  H    -0.071498      0.343650      0.055757 
 H107  H    -0.063916      0.306087      0.141512 
 H108  H    -0.438091      0.194417     -0.146689 
 H109  H    -0.425491      0.166612     -0.058986 
 H110  H    -0.448341      0.009378     -0.094657 
 H111  H    -0.441708      0.043961     -0.181820 
 H112  H    -0.059461      0.450544      0.188065 
 H113  H    -0.042058      0.495491      0.104666 
 H114  H    -0.200073     -0.483885      0.147607 
 H115  H    -0.195782      0.451549      0.071770 
 H116  H    -0.214275      0.404133      0.154592 
 H117  H    -0.293791     -0.008868     -0.146088 
 H118  H    -0.286994      0.102349     -0.162821 
 H119  H    -0.294081      0.064407     -0.075870 
 C120  C     0.193304     -0.229179      0.054564 
 C121  C     0.192610     -0.182286     -0.007454 
 C122  C     0.251606     -0.201837     -0.063653 
 C123  C     0.309012     -0.271808     -0.057984 
 C124  C     0.309733     -0.318616      0.004083 
 C125  C     0.250334     -0.299437      0.060150 
 O126  O     0.252062     -0.151910     -0.122234 
 C127  C     0.333682     -0.144185     -0.163248 
 C128  C     0.347488     -0.050513     -0.180842 
 C129  C     0.281803     -0.014719     -0.232769 
 C130  C     0.290017      0.081723     -0.244286 
 O131  O     0.249108     -0.349949      0.118497 
 C132  C     0.167946     -0.355482      0.160429 
 C133  C     0.152503     -0.448349      0.180170 
 C134  C     0.216009     -0.483081      0.234176 
 C135  C     0.204823      0.421346      0.248698 
 H136  H     0.353864     -0.289391     -0.101731 
 H137  H     0.148499     -0.211527      0.098295 
 H138  H     0.174400     -0.315063      0.206898 
 H139  H     0.110439     -0.332059      0.132136 
 H140  H     0.391161     -0.167616     -0.134912 
 H141  H     0.328531     -0.183258     -0.210616 
 H142  H     0.083492     -0.455687      0.200233 
 H143  H     0.158651     -0.487336      0.132514 
 H144  H     0.342184     -0.013351     -0.132173 
 H145  H     0.415874     -0.041777     -0.201860 
 H146  H     0.290749     -0.048309     -0.282915 
 H147  H     0.213974     -0.029134     -0.213410 
 H148  H     0.284601     -0.471266      0.215373 
 H149  H     0.206779     -0.446942      0.283111 
 H150  H     0.136188      0.405717      0.265580 
 H151  H     0.221885      0.383600      0.201891 
 H152  H     0.248535      0.399873      0.289877 
 H153  H     0.357738      0.099998     -0.261559 
 H154  H     0.244765      0.104118     -0.284073 
 H155  H     0.273038      0.116684     -0.196042 
 N156  N    -0.492329     -0.487085      0.325228 
 C157  C    -0.399750     -0.486555      0.296089 
 C158  C     0.462337      0.437149      0.298054 
 C159  C     0.462124     -0.410157      0.299383 
 C160  C     0.464010      0.438501      0.216760 
 H161  H     0.495264      0.379075      0.317000 
 H162  H     0.393243      0.435993      0.319350 
 C163  C    -0.398044     -0.486823      0.214519 
 H164  H    -0.365297     -0.430065      0.315877 
 H165  H    -0.364297      0.457293      0.315467 
 C166  C     0.466436     -0.407629      0.217813 
 H167  H     0.392303     -0.410709      0.319119 
 H168  H     0.492988     -0.352907      0.321298 
 H169  H    -0.361057     -0.431397      0.193409 
 H170  H    -0.363697      0.455867      0.193767 
 H171  H     0.499350      0.381783      0.196304 
 H172  H     0.395993      0.436227      0.197523 
 H173  H    -0.496054     -0.351440      0.198731 
 N174  N    -0.489548     -0.485106      0.188936 
 H175  H     0.399440     -0.401525      0.197271 
 C176  C    -0.268232     -0.164796     -0.016176 
 C177  C    -0.180657     -0.190275     -0.005011 
 C178  C    -0.160093     -0.275541      0.009481 
 C179  C    -0.229105     -0.335236      0.016590 
 C180  C    -0.316638     -0.309798      0.005396 
 C181  C    -0.337258     -0.224535     -0.008981 
 O182  O    -0.073118     -0.299015      0.016093 
 C183  C    -0.045592     -0.372029     -0.024361 
 C184  C     0.054568     -0.383351     -0.023872 
 C185  C     0.087363     -0.461113     -0.066229 
 C186  C     0.188484     -0.472896     -0.066303 
 O187  O    -0.424280     -0.201423     -0.015872 
 C188  C    -0.452668     -0.129467      0.025459 
 C189  C     0.447446     -0.117024      0.023139 
 C190  C     0.414576     -0.039287      0.065515 
 C191  C     0.313772     -0.025995      0.063917 
 H192  H    -0.214487     -0.401593      0.029028 
 H193  H    -0.282864     -0.098497     -0.028907 
 H194  H    -0.433791     -0.141024      0.079554 
 H195  H    -0.418240     -0.071817      0.006206 
 H196  H    -0.078821     -0.429431     -0.003296 
 H197  H    -0.066419     -0.362250     -0.078186 
 H198  H     0.428353     -0.109612     -0.031298 
 H199  H     0.413662     -0.174705      0.043241 
 H200  H     0.087017     -0.325489     -0.044973 
 H201  H     0.075385     -0.389947      0.030179 
 H202  H     0.054701      0.481153     -0.045273 
 H203  H     0.066400     -0.454545     -0.120329 
 H204  H     0.433845     -0.046686      0.119979 
 H205  H     0.448722      0.018183      0.045571 
 H206  H     0.291946      0.030852      0.093270 
 H207  H     0.291781     -0.018295      0.010307 
 H208  H     0.278232     -0.080565      0.087320 
 H209  H     0.210592      0.470638     -0.096019 
 H210  H     0.222520     -0.417799     -0.090224 
 H211  H     0.211980     -0.480286     -0.013095 
 Cu212  Cu    -0.004958      0.000118     -0.440274 
 Cu213  Cu     0.005861      0.001429      0.424043 
 O214  O    -0.085819      0.093617      0.436270 
 C215  C    -0.128695      0.106644      0.493976 
 O216  O    -0.116744      0.065948     -0.449674 
 O217  O     0.099782      0.088436      0.436880 
 C218  C     0.107131      0.126100      0.495307 
 O219  O     0.062435      0.108735     -0.448859 
 O220  O    -0.090287     -0.085705      0.430267 
 C221  C    -0.108926     -0.123274      0.487813 
 O222  O    -0.072389     -0.107507     -0.454617 
 O223  O     0.096236     -0.090825      0.435068 
 C224  C     0.129927     -0.104074      0.494158 
 O225  O     0.109579     -0.064230     -0.449621 
 Cu226  Cu     0.495092      0.498076     -0.425859 
 Cu227  Cu     0.499272     -0.496950      0.438492 
 O228  O     0.388663     -0.428044      0.452213 
 C229  C     0.371312     -0.390027     -0.490215 
 O230  O     0.408137     -0.405253     -0.432638 
 O231  O    -0.426849     -0.393172      0.451601 
 C232  C    -0.387236     -0.380183     -0.491713 
 O233  O    -0.404614     -0.418839     -0.434416 
 O234  O     0.427133      0.397097      0.448246 
 C235  C     0.385379      0.378927     -0.494750 
 O236  O     0.396074      0.415522     -0.436282 
 O237  O    -0.392125      0.432245      0.441755 
 C238  C    -0.379980      0.388349      0.496365 
 O239  O    -0.418501      0.401755     -0.444137 
 C240  C    -0.190982      0.236668      0.439934 
 C241  C    -0.196349      0.177581      0.494645 
 C242  C    -0.262197      0.186292     -0.451938 
 C243  C    -0.323679      0.253436     -0.454847 
 C244  C    -0.317397      0.313319      0.491201 
 C245  C    -0.252722      0.303827      0.436790 
 O246  O    -0.266284      0.129413     -0.397778 
 C247  C    -0.285931      0.163313     -0.329337 
 C248  C    -0.219424      0.233609     -0.315072 
 C249  C    -0.231866      0.276299     -0.243755 
 C250  C    -0.175809      0.357308     -0.239377 
 O251  O    -0.250296      0.362452      0.383707 
 C252  C    -0.209586      0.343546      0.316294 
 C253  C    -0.267276      0.285368      0.273018 
 C254  C    -0.272660      0.192589      0.297970 
 C255  C    -0.331762      0.136769      0.253922 
 H256  H    -0.375942      0.259594     -0.414094 
 H257  H    -0.138019      0.230665      0.399781 
 H258  H    -0.201825      0.405196      0.289449 
 H259  H    -0.142072      0.317589      0.321253 
 H260  H    -0.355254      0.186013     -0.324816 
 H261  H    -0.279660      0.110880     -0.291734 
 H262  H    -0.335024      0.312025      0.271624 
 H263  H    -0.240991      0.285477      0.218682 
 H264  H    -0.151339      0.207703     -0.320602 
 H265  H    -0.223679      0.283584     -0.354957 
 H266  H    -0.302497      0.292115     -0.233463 
 H267  H    -0.213608      0.230849     -0.203025 
 H268  H    -0.205319      0.165147      0.298110 
 H269  H    -0.298703      0.190939      0.352101 
 H270  H    -0.330979      0.070276      0.271724 
 H271  H    -0.401098      0.158905      0.257041 
 H272  H    -0.308877      0.137837      0.199071 
 H273  H    -0.179952      0.384802     -0.186958 
 H274  H    -0.105337      0.344338     -0.252351 
 H275  H    -0.198475      0.406142     -0.275753 
 N276  N    -0.012279     -0.011588     -0.190052 
 C277  C     0.028929     -0.090340     -0.219089 
 C278  C    -0.103861     -0.006892     -0.215320 
 C279  C     0.036420      0.063314     -0.218206 
 C280  C    -0.102806     -0.006407     -0.296976 
 H281  H    -0.142358     -0.061428     -0.194282 
 H282  H    -0.136200      0.051206     -0.194102 
 C283  C     0.031780     -0.088382     -0.300654 
 H284  H     0.096265     -0.097923     -0.199459 
 H285  H    -0.009671     -0.145501     -0.199280 
 C286  C     0.038231      0.064157     -0.299552 
 H287  H     0.002596      0.120989     -0.198010 
 H288  H     0.104367      0.064041     -0.198818 
 H289  H     0.101254     -0.091128     -0.321062 
 H290  H    -0.002262     -0.144299     -0.321884 
 H291  H    -0.140176     -0.061030     -0.316945 
 H292  H    -0.135382      0.051549     -0.316061 
 H293  H     0.107262      0.062187     -0.320965 
 N294  N    -0.010542     -0.009698     -0.326491 
 H295  H     0.008083      0.123529     -0.318672 
 C296  C     0.241276      0.319474     -0.450633 
 C297  C     0.315780      0.310683     -0.496155 
 C298  C     0.323028      0.241806      0.457113 
 C299  C     0.251366      0.185345      0.452684 
 C300  C     0.176867      0.194083      0.498081 
 C301  C     0.170042      0.262320     -0.454545 
 O302  O     0.399647      0.231751      0.416804 
 C303  C     0.427271      0.146896      0.396999 
 C304  C    -0.477587      0.132620      0.418743 
 C305  C    -0.444807      0.040573      0.406075 
 C306  C    -0.349635      0.023610      0.429004 
 O307  O     0.094741      0.270059     -0.412460 
 C308  C     0.061838      0.353834     -0.394896 
 C309  C    -0.033081      0.361303     -0.419105 
 C310  C    -0.075107      0.449493     -0.405002 
 C311  C    -0.170022      0.457972     -0.430927 
 H312  H     0.254289      0.133457      0.414707 
 H313  H     0.237871      0.371635     -0.412936 
 H314  H     0.064185      0.361667     -0.337989 
 H315  H     0.103104      0.404213     -0.419313 
 H316  H     0.384178      0.097993      0.421494 
 H317  H     0.422282      0.140958      0.340119 
 H318  H    -0.033900      0.347331     -0.475340 
 H319  H    -0.074293      0.311778     -0.393414 
 H320  H    -0.433616      0.177898      0.390600 
 H321  H    -0.472818      0.148293      0.474415 
 H322  H    -0.490404     -0.003616      0.433926 
 H323  H    -0.449212      0.024976      0.350403 
 H324  H    -0.075474      0.462951     -0.348716 
 H325  H    -0.032858      0.498831     -0.429934 
 H326  H    -0.197009     -0.477738     -0.421702 
 H327  H    -0.172382      0.445649     -0.487168 
 H328  H    -0.215748      0.413031     -0.404455 
 H329  H    -0.331085     -0.043651      0.421801 
 H330  H    -0.300398      0.061644      0.399131 
 H331  H    -0.342102      0.038680      0.484326 
 C332  C     0.330540     -0.240321     -0.461982 
 C333  C     0.305562     -0.318018     -0.491092 
 C334  C     0.223956     -0.326551      0.476443 
 C335  C     0.169121     -0.254535      0.470006 
 C336  C     0.194478     -0.176690      0.498410 
 C337  C     0.275697     -0.168242     -0.468608 
 O338  O     0.200189     -0.405444      0.452822 
 C339  C     0.109936     -0.416727      0.433181 
 C340  C     0.092987      0.489448      0.419329 
 C341  C    -0.004216      0.470250      0.402834 
 C342  C    -0.038234     -0.481705      0.339507 
 O343  O     0.298638     -0.089064     -0.445204 
 C344  C     0.388721     -0.075983     -0.425896 
 C345  C     0.403596      0.018918     -0.415384 
 C346  C     0.499879      0.041298     -0.398491 
 C347  C    -0.468202      0.002088     -0.330667 
 H348  H     0.105490     -0.258610      0.444487 
 H349  H     0.394239     -0.235857     -0.436653 
 H350  H     0.399811     -0.111668     -0.377548 
 H351  H     0.434756     -0.100631     -0.467250 
 H352  H     0.064322     -0.393403      0.475347 
 H353  H     0.099398     -0.378674      0.385947 
 H354  H     0.385700      0.053228     -0.462924 
 H355  H     0.357729      0.043021     -0.373938 
 H356  H     0.137467      0.467218      0.376296 
 H357  H     0.111237      0.451862      0.465122 
 H358  H    -0.011478      0.401137      0.394796 
 H359  H    -0.047184      0.486054      0.448648 
 H360  H    -0.455498      0.020319     -0.441848 
 H361  H    -0.493626      0.111146     -0.396135 
 H362  H    -0.398711      0.019107     -0.322161 
 H363  H     0.491441      0.025140     -0.285733 
 H364  H    -0.471536     -0.067855     -0.331350 
 H365  H    -0.107974     -0.497566      0.330823 
 H366  H    -0.035361     -0.412275      0.346558 
 H367  H     0.000968     -0.498110      0.292022 
 N368  N     0.489402      0.493697     -0.174789 
 C369  C    -0.443715      0.433788     -0.205416 
 C370  C     0.401092      0.467906     -0.198852 
 C371  C    -0.491488     -0.420013     -0.202423 
 C372  C     0.399817      0.467964     -0.280474 
 H373  H     0.385142      0.404037     -0.178020 
 H374  H     0.350274     -0.488168     -0.176455 
 C375  C    -0.444697      0.434999     -0.286932 
 H376  H    -0.377456      0.451272     -0.187744 
 H377  H    -0.457735      0.369248     -0.185055 
 C378  C    -0.493750     -0.419017     -0.283813 
 H379  H     0.459452     -0.374642     -0.179548 
 H380  H    -0.425866     -0.399690     -0.185137 
 H381  H    -0.379139      0.453767     -0.309509 
 H382  H    -0.458528      0.370788     -0.307211 
 H383  H     0.384395      0.403789     -0.300028 
 H384  H     0.347606     -0.488974     -0.298990 
 H385  H    -0.429656     -0.396858     -0.306611 
 N386  N     0.486931      0.495042     -0.311216 
 H387  H     0.455219     -0.374000     -0.301312 
 C388  C    -0.298068     -0.273605      0.440884 
 C389  C    -0.314263     -0.314308     -0.494921 
 C390  C    -0.262477     -0.293952     -0.437723 
 C391  C    -0.195258     -0.232538     -0.445929 
 C392  C    -0.179711     -0.191228      0.490132 
 C393  C    -0.230980     -0.211985      0.432756 
 O394  O    -0.279207     -0.332875     -0.374713 
 C395  C    -0.212290     -0.330427     -0.323318 
 C396  C    -0.246269     -0.382361     -0.261240 
 C397  C    -0.176734     -0.399033     -0.206366 
 C398  C    -0.216920     -0.443637     -0.141594 
 O399  O    -0.214479     -0.171977      0.370147 
 C400  C    -0.277824     -0.179740      0.316399 
 C401  C    -0.248370     -0.120341      0.257573 
 C402  C    -0.315089     -0.111989      0.199396 
 C403  C    -0.281944     -0.051734      0.141258 
 H404  H    -0.155432     -0.215659     -0.401657 
 H405  H    -0.337865     -0.290223      0.396536 
 H406  H    -0.279432     -0.246138      0.297756 
 H407  H    -0.344638     -0.162183      0.337372 
 H408  H    -0.149528     -0.356828     -0.345794 
 H409  H    -0.200681     -0.264204     -0.306977 
 H410  H    -0.236186     -0.056738      0.279439 
 H411  H    -0.184338     -0.143064      0.234865 
 H412  H    -0.303412     -0.348524     -0.236527 
 H413  H    -0.271312     -0.443926     -0.279681 
 H414  H    -0.122378     -0.438230     -0.229500 
 H415  H    -0.146659     -0.338279     -0.190978 
 H416  H    -0.327884     -0.175357      0.177232 
 H417  H    -0.379204     -0.088628      0.221631 
 H418  H    -0.331357     -0.042687      0.101365 
 H419  H    -0.266714      0.011465      0.161844 
 H420  H    -0.220815     -0.076202      0.115199 
 H421  H    -0.166162     -0.460724     -0.104445 
 H422  H    -0.266347     -0.402602     -0.114523 
 H423  H    -0.251159      0.497475     -0.155185 
loop_  
_geom_bond_atom_site_label_1  
_geom_bond_atom_site_label_2  
Cu0   Cu1 
Cu0   O4 
Cu0   O7 
Cu0   O10 
Cu0   O13 
Cu0   N82 
Cu1   O2 
Cu1   O5 
Cu1   O8 
Cu1   O11 
Cu1   N276 
O2   C3 
C3   O4 
C3   C29 
O5   C6 
C6   O7 
C6   C88 
O8   C9 
C9   O10 
C9   C177 
O11   C12 
C12   O13 
C12   C121 
Cu14   Cu15 
Cu14   O18 
Cu14   O21 
Cu14   O24 
Cu14   O27 
Cu14   N174 
Cu15   O16 
Cu15   O19 
Cu15   O22 
Cu15   O25 
Cu15   N368 
O16   C17 
C17   O18 
C17   C124 
O19   C20 
C20   O21 
C20   C180 
O22   C23 
C23   O24 
C23   C85 
O25   C26 
C26   O27 
C26   C32 
C28   C29 
C28   C33 
C28   H45 
C29   C30 
C30   C31 
C30   O34 
C31   C32 
C31   H44 
C32   C33 
C33   O39 
O34   C35 
C35   C36 
C35   H48 
C35   H49 
C36   C37 
C36   H52 
C36   H53 
C37   C38 
C37   H54 
C37   H55 
C38   H61 
C38   H62 
C38   H63 
O39   C40 
C40   C41 
C40   H46 
C40   H47 
C41   C42 
C41   H50 
C41   H51 
C42   C43 
C42   H56 
C42   H57 
C43   H58 
C43   H59 
C43   H60 
N64   C65 
N64   C66 
N64   C67 
N64   Cu213 
C65   C71 
C65   H72 
C65   H73 
C66   C68 
C66   H69 
C66   H70 
C67   C74 
C67   H75 
C67   H76 
C68   H79 
C68   H80 
C68   N82 
C71   H77 
C71   H78 
C71   N82 
C74   H81 
C74   N82 
C74   H83 
C84   C85 
C84   C89 
C84   H101 
C85   C86 
C86   C87 
C86   O90 
C87   C88 
C87   H100 
C88   C89 
C89   O95 
O90   C91 
C91   C92 
C91   H104 
C91   H105 
C92   C93 
C92   H108 
C92   H109 
C93   C94 
C93   H110 
C93   H111 
C94   H117 
C94   H118 
C94   H119 
O95   C96 
C96   C97 
C96   H102 
C96   H103 
C97   C98 
C97   H106 
C97   H107 
C98   C99 
C98   H112 
C98   H113 
C99   H114 
C99   H115 
C99   H116 
C120   C121 
C120   C125 
C120   H137 
C121   C122 
C122   C123 
C122   O126 
C123   C124 
C123   H136 
C124   C125 
C125   O131 
O126   C127 
C127   C128 
C127   H140 
C127   H141 
C128   C129 
C128   H144 
C128   H145 
C129   C130 
C129   H146 
C129   H147 
C130   H153 
C130   H154 
C130   H155 
O131   C132 
C132   C133 
C132   H138 
C132   H139 
C133   C134 
C133   H142 
C133   H143 
C134   C135 
C134   H148 
C134   H149 
C135   H150 
C135   H151 
C135   H152 
N156   C157 
N156   C158 
N156   C159 
N156   Cu227 
C157   C163 
C157   H164 
C157   H165 
C158   C160 
C158   H161 
C158   H162 
C159   C166 
C159   H167 
C159   H168 
C160   H171 
C160   H172 
C160   N174 
C163   H169 
C163   H170 
C163   N174 
C166   H173 
C166   N174 
C166   H175 
C176   C177 
C176   C181 
C176   H193 
C177   C178 
C178   C179 
C178   O182 
C179   C180 
C179   H192 
C180   C181 
C181   O187 
O182   C183 
C183   C184 
C183   H196 
C183   H197 
C184   C185 
C184   H200 
C184   H201 
C185   C186 
C185   H202 
C185   H203 
C186   H209 
C186   H210 
C186   H211 
O187   C188 
C188   C189 
C188   H194 
C188   H195 
C189   C190 
C189   H198 
C189   H199 
C190   C191 
C190   H204 
C190   H205 
C191   H206 
C191   H207 
C191   H208 
Cu212   Cu213 
Cu212   O216 
Cu212   O219 
Cu212   O222 
Cu212   O225 
Cu212   N294 
Cu213   O214 
Cu213   O217 
Cu213   O220 
Cu213   O223 
O214   C215 
C215   O216 
C215   C241 
O217   C218 
C218   O219 
C218   C300 
O220   C221 
C221   O222 
C221   C392 
O223   C224 
C224   O225 
C224   C336 
Cu226   Cu227 
Cu226   O230 
Cu226   O233 
Cu226   O236 
Cu226   O239 
Cu226   N386 
Cu227   O228 
Cu227   O231 
Cu227   O234 
Cu227   O237 
O228   C229 
C229   O230 
C229   C333 
O231   C232 
C232   O233 
C232   C389 
O234   C235 
C235   O236 
C235   C297 
O237   C238 
C238   O239 
C238   C244 
C240   C241 
C240   C245 
C240   H257 
C241   C242 
C242   C243 
C242   O246 
C243   C244 
C243   H256 
C244   C245 
C245   O251 
O246   C247 
C247   C248 
C247   H260 
C247   H261 
C248   C249 
C248   H264 
C248   H265 
C249   C250 
C249   H266 
C249   H267 
C250   H273 
C250   H274 
C250   H275 
O251   C252 
C252   C253 
C252   H258 
C252   H259 
C253   C254 
C253   H262 
C253   H263 
C254   C255 
C254   H268 
C254   H269 
C255   H270 
C255   H271 
C255   H272 
N276   C277 
N276   C278 
N276   C279 
C277   C283 
C277   H284 
C277   H285 
C278   C280 
C278   H281 
C278   H282 
C279   C286 
C279   H287 
C279   H288 
C280   H291 
C280   H292 
C280   N294 
C283   H289 
C283   H290 
C283   N294 
C286   H293 
C286   N294 
C286   H295 
C296   C297 
C296   C301 
C296   H313 
C297   C298 
C298   C299 
C298   O302 
C299   C300 
C299   H312 
C300   C301 
C301   O307 
O302   C303 
C303   C304 
C303   H316 
C303   H317 
C304   C305 
C304   H320 
C304   H321 
C305   C306 
C305   H322 
C305   H323 
C306   H329 
C306   H330 
C306   H331 
O307   C308 
C308   C309 
C308   H314 
C308   H315 
C309   C310 
C309   H318 
C309   H319 
C310   C311 
C310   H324 
C310   H325 
C311   H326 
C311   H327 
C311   H328 
C332   C333 
C332   C337 
C332   H349 
C333   C334 
C334   C335 
C334   O338 
C335   C336 
C335   H348 
C336   C337 
C337   O343 
O338   C339 
C339   C340 
C339   H352 
C339   H353 
C340   C341 
C340   H356 
C340   H357 
C341   C342 
C341   H358 
C341   H359 
C342   H365 
C342   H366 
C342   H367 
O343   C344 
C344   C345 
C344   H350 
C344   H351 
C345   C346 
C345   H354 
C345   H355 
C346   C347 
C346   H360 
C346   H361 
C347   H362 
C347   H363 
C347   H364 
N368   C369 
N368   C370 
N368   C371 
C369   C375 
C369   H376 
C369   H377 
C370   C372 
C370   H373 
C370   H374 
C371   C378 
C371   H379 
C371   H380 
C372   H383 
C372   H384 
C372   N386 
C375   H381 
C375   H382 
C375   N386 
C378   H385 
C378   N386 
C378   H387 
C388   C389 
C388   C393 
C388   H405 
C389   C390 
C390   C391 
C390   O394 
C391   C392 
C391   H404 
C392   C393 
C393   O399 
O394   C395 
C395   C396 
C395   H408 
C395   H409 
C396   C397 
C396   H412 
C396   H413 
C397   C398 
C397   H414 
C397   H415 
C398   H421 
C398   H422 
C398   H423 
O399   C400 
C400   C401 
C400   H406 
C400   H407 
C401   C402 
C401   H410 
C401   H411 
C402   C403 
C402   H416 
C402   H417 
C403   H418 
C403   H419 
C403   H420 
  
#END  
