data_
_symmetry_cell_setting           triclinic 
_symmetry_space_group_name_H-M   'P 1' 
_symmetry_Int_Tables_number      1 
loop_ 
_symmetry_equiv_pos_site_id 
_symmetry_equiv_pos_as_xyz 
1 x,y,z 
_cell_length_a             16.168390        
_cell_length_b             14.704780        
_cell_length_c             18.969293        
_cell_angle_alpha          90.790494        
_cell_angle_beta           86.271016        
_cell_angle_gamma          89.869283        
loop_  
_atom_site_label   
_atom_site_type_symbol  
_atom_site_fract_x  
_atom_site_fract_y  
_atom_site_fract_z 
 Cu0  Cu    -0.005693     -0.001579      0.073421 
 Cu1  Cu     0.000349     -0.003157     -0.063685 
 O2  O    -0.095520      0.080379     -0.051734 
 C3  C    -0.120390      0.115017      0.007830 
 O4  O    -0.090177      0.097095      0.066462 
 O5  O     0.076460      0.103502     -0.056126 
 C6  C     0.106585      0.124152      0.002395 
 O7  O     0.084721      0.089501      0.061791 
 O8  O    -0.078641     -0.106780     -0.050896 
 C9  C    -0.112444     -0.129636      0.008830 
 O10  O    -0.093603     -0.096640      0.068133 
 O11  O     0.094096     -0.089932     -0.059106 
 C12  C     0.114113     -0.120910     -0.000225 
 O13  O     0.081626     -0.097018      0.060187 
 Cu14  Cu     0.494211      0.498243      0.066378 
 Cu15  Cu     0.498863      0.495426     -0.070700 
 O16  O     0.415491     -0.404782     -0.056763 
 C17  C     0.384033     -0.379753      0.003694 
 O18  O     0.406443     -0.407850      0.062685 
 O19  O    -0.408432     -0.414909     -0.066132 
 C20  C    -0.386212     -0.384398     -0.007121 
 O21  O    -0.420153     -0.405369      0.052968 
 O22  O     0.403919      0.409836     -0.057994 
 C23  C     0.379841      0.378403      0.002063 
 O24  O     0.410014      0.399666      0.060477 
 O25  O    -0.420379      0.393029     -0.065887 
 C26  C    -0.391250      0.372666     -0.007328 
 O27  O    -0.415840      0.406697      0.052583 
 C28  C    -0.226637      0.191976     -0.058749 
 C29  C    -0.190707      0.181991      0.006035 
 C30  C    -0.218816      0.234950      0.064993 
 C31  C    -0.285641      0.294573      0.058653 
 C32  C    -0.321189      0.305154     -0.006252 
 C33  C    -0.290424      0.255355     -0.066225 
 O34  O    -0.180943      0.227555      0.127291 
 C35  C    -0.187827      0.302657      0.176598 
 C36  C    -0.122890      0.290988      0.230369 
 C37  C    -0.112431      0.374674      0.278506 
 C38  C    -0.190488      0.400920      0.324647 
 O39  O    -0.324189      0.268172     -0.130004 
 C40  C    -0.277277      0.243114     -0.194593 
 C41  C    -0.301539      0.148938     -0.221126 
 C42  C    -0.389647      0.143358     -0.247063 
 C43  C    -0.399579      0.191855     -0.317188 
 H44  H    -0.309374      0.333548      0.104978 
 H45  H    -0.204810      0.150211     -0.104161 
 H46  H    -0.289962      0.295037     -0.233680 
 H47  H    -0.210328      0.246834     -0.187300 
 H48  H    -0.178071      0.366934      0.148002 
 H49  H    -0.250596      0.303440      0.202975 
 H50  H    -0.256912      0.127492     -0.264607 
 H51  H    -0.295631      0.098793     -0.179165 
 H52  H    -0.138289      0.231385      0.263169 
 H53  H    -0.062859      0.275758      0.201811 
 H54  H    -0.061665      0.361164      0.312943 
 H55  H    -0.092136      0.432987      0.245975 
 H56  H    -0.406310      0.071248     -0.253331 
 H57  H    -0.434244      0.171503     -0.206027 
 H58  H    -0.463224      0.185723     -0.333778 
 H59  H    -0.385573      0.264639     -0.313292 
 H60  H    -0.357912      0.162717     -0.359815 
 H61  H    -0.242367      0.418419      0.292729 
 H62  H    -0.210688      0.345002      0.359422 
 H63  H    -0.179010      0.460122      0.358611 
 N64  N    -0.002534      0.004226      0.323618 
 C65  C     0.047280      0.080786      0.294425 
 C66  C     0.032576     -0.081563      0.292915 
 C67  C    -0.088040      0.014571      0.301318 
 C68  C     0.033135     -0.080719      0.210775 
 H69  H     0.096242     -0.089946      0.309261 
 H70  H    -0.003747     -0.139368      0.314522 
 C71  C     0.046222      0.081340      0.212178 
 H72  H     0.022259      0.145168      0.317653 
 H73  H     0.111321      0.074349      0.310636 
 C74  C    -0.088822      0.012877      0.219119 
 H75  H    -0.127030     -0.039937      0.324709 
 H76  H    -0.114033      0.079372      0.322703 
 H77  H     0.020331      0.145652      0.193958 
 H78  H     0.109996      0.075924      0.188055 
 H79  H     0.097343     -0.086473      0.187759 
 H80  H    -0.001358     -0.139167      0.190664 
 H81  H    -0.117717      0.075259      0.200383 
 N82  N    -0.003493      0.004598      0.186589 
 H83  H    -0.125987     -0.044609      0.200997 
 C84  C     0.238315      0.178215      0.048301 
 C85  C     0.174731      0.193214      0.002922 
 C86  C     0.176714      0.269578     -0.040934 
 C87  C     0.245343      0.327690     -0.042425 
 C88  C     0.308907      0.312631      0.002956 
 C89  C     0.306218      0.237421      0.047743 
 O90  O     0.114346      0.290275     -0.083403 
 C91  C     0.039118      0.322364     -0.046623 
 C92  C    -0.015762      0.365741     -0.099208 
 C93  C    -0.093402      0.412061     -0.063711 
 C94  C    -0.149864      0.455350     -0.115956 
 O95  O     0.369074      0.224546      0.091468 
 C96  C     0.413114      0.139670      0.085040 
 C97  C     0.462063      0.133187      0.013645 
 C98  C    -0.483882      0.047192      0.004977 
 C99  C    -0.436555      0.038958     -0.067471 
 H100  H     0.246715      0.385762     -0.077696 
 H101  H     0.236298      0.120181      0.083610 
 H102  H     0.455375      0.137951      0.128248 
 H103  H     0.369895      0.082319      0.092558 
 H104  H     0.006866      0.265064     -0.020113 
 H105  H     0.054778      0.371963     -0.005494 
 H106  H     0.419193      0.134822     -0.029173 
 H107  H    -0.498230      0.193700      0.006719 
 H108  H     0.020370      0.416246     -0.130494 
 H109  H    -0.034594      0.313224     -0.136876 
 H110  H    -0.129080      0.361905     -0.031843 
 H111  H    -0.074358      0.464647     -0.026214 
 H112  H    -0.439245      0.047011      0.046424 
 H113  H     0.476933     -0.013264      0.013540 
 H114  H    -0.398250     -0.023000     -0.071402 
 H115  H    -0.479155      0.036366     -0.110305 
 H116  H    -0.395200      0.097329     -0.076775 
 H117  H    -0.204599      0.487128     -0.088139 
 H118  H    -0.117242     -0.491644     -0.146996 
 H119  H    -0.172311      0.404500     -0.153052 
 C120  C     0.263398     -0.314891     -0.053368 
 C121  C     0.313672     -0.313122      0.004139 
 C122  C     0.298586     -0.249756      0.059577 
 C123  C     0.232522     -0.188539      0.057461 
 C124  C     0.182701     -0.189712     -0.000274 
 C125  C     0.196538     -0.254237     -0.055100 
 O126  O     0.345393     -0.245557      0.116890 
 C127  C     0.416324     -0.187300      0.108849 
 C128  C     0.448011     -0.168394      0.181506 
 C129  C    -0.485431     -0.093881      0.182432 
 C130  C    -0.406087     -0.115807      0.136536 
 O131  O     0.145779     -0.256925     -0.110059 
 C132  C     0.107849     -0.343131     -0.123799 
 C133  C     0.039142     -0.329597     -0.174079 
 C134  C     0.068911     -0.300900     -0.249209 
 C135  C     0.116032     -0.375241     -0.293035 
 H136  H     0.221956     -0.139561      0.100857 
 H137  H     0.275469     -0.363196     -0.097033 
 H138  H     0.154854     -0.391453     -0.146331 
 H139  H     0.082217     -0.370899     -0.073299 
 H140  H     0.463989     -0.221517      0.073599 
 H141  H     0.398692     -0.123669      0.083639 
 H142  H     0.003172     -0.392843     -0.177415 
 H143  H    -0.004444     -0.277973     -0.150793 
 H144  H     0.395459     -0.148021      0.218264 
 H145  H     0.472836     -0.231653      0.202422 
 H146  H     0.488186     -0.029335      0.165410 
 H147  H    -0.469421     -0.082210      0.237380 
 H148  H     0.014945     -0.279319     -0.277419 
 H149  H     0.108527     -0.240576     -0.245842 
 H150  H     0.134318     -0.351252     -0.346429 
 H151  H     0.172910     -0.396158     -0.268888 
 H152  H     0.077469     -0.435948     -0.299023 
 H153  H    -0.377217     -0.178780      0.153450 
 H154  H    -0.418163     -0.124526      0.080501 
 H155  H    -0.360075     -0.061265      0.140082 
 N156  N    -0.499958      0.495456      0.316787 
 C157  C     0.499167      0.401468      0.288151 
 C158  C     0.426142     -0.455807      0.294462 
 C159  C    -0.425518     -0.458527      0.285425 
 C160  C     0.424720     -0.456616      0.212290 
 H161  H     0.369792     -0.487284      0.319087 
 H162  H     0.427432     -0.385114      0.314475 
 C163  C     0.499300      0.401650      0.205882 
 H164  H    -0.446300      0.364616      0.305151 
 H165  H     0.444033      0.366047      0.311161 
 C166  C    -0.426884     -0.457113      0.203219 
 H167  H    -0.423700     -0.388681      0.307048 
 H168  H    -0.369703     -0.493773      0.301656 
 H169  H    -0.445394      0.365977      0.182229 
 H170  H     0.445080      0.364874      0.187801 
 H171  H     0.368536     -0.490217      0.194903 
 H172  H     0.423448     -0.386433      0.192751 
 H173  H    -0.370906     -0.489986      0.177981 
 N174  N     0.498619      0.495959      0.179657 
 H175  H    -0.427299     -0.386321      0.184842 
 C176  C    -0.286011     -0.297512      0.060816 
 C177  C    -0.313803     -0.320002     -0.005650 
 C178  C    -0.274854     -0.282152     -0.066754 
 C179  C    -0.207214     -0.223573     -0.060034 
 C180  C    -0.180794     -0.199228      0.006675 
 C181  C    -0.219008     -0.238240      0.067731 
 O182  O    -0.301064     -0.305624     -0.131819 
 C183  C    -0.303829     -0.236891     -0.184923 
 C184  C    -0.273411     -0.277128     -0.256452 
 C185  C    -0.187783     -0.323101     -0.257272 
 C186  C    -0.156840     -0.359597     -0.330453 
 O187  O    -0.194090     -0.215673      0.133479 
 C188  C    -0.188013     -0.287624      0.183665 
 C189  C    -0.172173     -0.247822      0.256094 
 C190  C    -0.240435     -0.183691      0.288328 
 C191  C    -0.324837     -0.229162      0.303574 
 H192  H    -0.175124     -0.197167     -0.107746 
 H193  H    -0.317819     -0.324771      0.108310 
 H194  H    -0.244298     -0.329477      0.187702 
 H195  H    -0.136345     -0.332342      0.164417 
 H196  H    -0.368921     -0.214972     -0.185940 
 H197  H    -0.267968     -0.175961     -0.172383 
 H198  H    -0.163903     -0.304090      0.292748 
 H199  H    -0.112803     -0.211299      0.252543 
 H200  H    -0.319056     -0.326602     -0.273921 
 H201  H    -0.271298     -0.222670     -0.295810 
 H202  H    -0.142510     -0.274366     -0.238077 
 H203  H    -0.190466     -0.379475     -0.219595 
 H204  H    -0.219874     -0.155052      0.338193 
 H205  H    -0.247572     -0.125605      0.253189 
 H206  H    -0.350253     -0.255525      0.255104 
 H207  H    -0.320080     -0.286093      0.340001 
 H208  H    -0.370176     -0.180702      0.328257 
 H209  H    -0.200454     -0.408929     -0.351187 
 H210  H    -0.149225     -0.304329     -0.368724 
 H211  H    -0.096473     -0.393698     -0.328594 
 Cu212  Cu    -0.004298     -0.000462     -0.426709 
 Cu213  Cu     0.003053     -0.000690      0.436387 
 O214  O    -0.093234      0.082532      0.449478 
 C215  C    -0.114856      0.120919     -0.491569 
 O216  O    -0.082844      0.104930     -0.433291 
 O217  O     0.079982      0.104612      0.451211 
 C218  C     0.113892      0.119706     -0.490795 
 O219  O     0.092414      0.082235     -0.432400 
 O220  O    -0.074440     -0.106716      0.445163 
 C221  C    -0.111873     -0.124698     -0.495466 
 O222  O    -0.099009     -0.085460     -0.436908 
 O223  O     0.098367     -0.084594      0.438918 
 C224  C     0.115008     -0.120597      0.496916 
 O225  O     0.075755     -0.104763     -0.443593 
 Cu226  Cu     0.495914      0.498730     -0.433156 
 Cu227  Cu    -0.494689     -0.499146      0.429929 
 O228  O     0.428678     -0.392098      0.446424 
 C229  C     0.389647     -0.374643     -0.494251 
 O230  O     0.404379     -0.411701     -0.436172 
 O231  O    -0.396540     -0.417999      0.442705 
 C232  C    -0.382748     -0.382063     -0.497640 
 O233  O    -0.422196     -0.400008     -0.439197 
 O234  O     0.405643      0.420922      0.434603 
 C235  C     0.383361      0.382298      0.492403 
 O236  O     0.415975      0.397084     -0.449012 
 O237  O    -0.419454      0.392693      0.435984 
 C238  C    -0.388158      0.375060      0.494286 
 O239  O    -0.410677      0.411488     -0.446216 
 C240  C    -0.239599      0.176340      0.452579 
 C241  C    -0.185134      0.187980     -0.493361 
 C242  C    -0.195608      0.260889     -0.444915 
 C243  C    -0.262353      0.320982     -0.450900 
 C244  C    -0.317127      0.308935      0.495381 
 C245  C    -0.306157      0.236681      0.446464 
 O246  O    -0.139863      0.271327     -0.393827 
 C247  C    -0.137567      0.356033     -0.355306 
 C248  C    -0.066424      0.354287     -0.306410 
 C249  C     0.019779      0.342651     -0.344804 
 C250  C     0.090483      0.341929     -0.294655 
 O251  O    -0.361779      0.227465      0.395181 
 C252  C    -0.356850      0.149752      0.348389 
 C253  C    -0.429705      0.151649      0.301266 
 C254  C     0.484919      0.153838      0.342250 
 C255  C     0.411861      0.151158      0.294562 
 H256  H    -0.271504      0.377900     -0.413659 
 H257  H    -0.230581      0.119537      0.415217 
 H258  H    -0.297733      0.151703      0.316053 
 H259  H    -0.358176      0.087002      0.379522 
 H260  H    -0.129716      0.412312     -0.392936 
 H261  H    -0.196758      0.366145     -0.324044 
 H262  H    -0.423878      0.210992      0.266540 
 H263  H    -0.425935      0.091433      0.265995 
 H264  H    -0.067485      0.417937     -0.275031 
 H265  H    -0.076780      0.299075     -0.268239 
 H266  H     0.021584      0.279126     -0.376409 
 H267  H     0.030296      0.398002     -0.382792 
 H268  H     0.480131      0.095970      0.378470 
 H269  H     0.479915      0.215459      0.376040 
 H270  H     0.412618      0.088560      0.262206 
 H271  H     0.352504      0.153537      0.326306 
 H272  H     0.413057      0.209256      0.258697 
 H273  H     0.083139      0.286589     -0.256477 
 H274  H     0.150735      0.332468     -0.324216 
 H275  H     0.093093      0.406052     -0.264481 
 N276  N    -0.002627      0.003938     -0.176695 
 C277  C    -0.009618      0.098154     -0.202198 
 C278  C     0.074724     -0.036390     -0.209150 
 C279  C    -0.073345     -0.049125     -0.201029 
 C280  C     0.073635     -0.037755     -0.291279 
 H281  H     0.127619      0.003340     -0.191978 
 H282  H     0.081987     -0.105831     -0.189349 
 C283  C    -0.007834      0.098967     -0.284519 
 H284  H    -0.067745      0.128648     -0.179130 
 H285  H     0.041372      0.139394     -0.182996 
 C286  C    -0.074881     -0.046308     -0.283123 
 H287  H    -0.067488     -0.120017     -0.183793 
 H288  H    -0.131645     -0.022005     -0.175398 
 H289  H    -0.063649      0.132751     -0.302171 
 H290  H     0.046006      0.137584     -0.306437 
 H291  H     0.128098     -0.002076     -0.315381 
 H292  H     0.076791     -0.108327     -0.311575 
 H293  H    -0.132446     -0.013989     -0.298747 
 N294  N    -0.003032      0.005233     -0.313711 
 H295  H    -0.073536     -0.115928     -0.305621 
 C296  C     0.305061      0.258198     -0.447200 
 C297  C     0.314095      0.313500      0.493289 
 C298  C     0.259262      0.303903      0.438922 
 C299  C     0.193961      0.241178      0.447176 
 C300  C     0.184652      0.186502     -0.493068 
 C301  C     0.241224      0.193627     -0.439896 
 O302  O     0.268787      0.355813      0.379295 
 C303  C     0.218178      0.334287      0.321687 
 C304  C     0.246559      0.389083      0.257346 
 C305  C     0.205795      0.360744      0.189427 
 C306  C     0.111288      0.372076      0.192731 
 O307  O     0.233158      0.138117     -0.382113 
 C308  C     0.304620      0.121505     -0.342483 
 C309  C     0.311136      0.190735     -0.282111 
 C310  C     0.251144      0.175103     -0.217267 
 C311  C     0.273754      0.093202     -0.173038 
 H312  H     0.149162      0.234649      0.406719 
 H313  H     0.348835      0.265449     -0.406070 
 H314  H     0.298454      0.052089     -0.321871 
 H315  H     0.361058      0.121261     -0.378365 
 H316  H     0.223386      0.261015      0.309017 
 H317  H     0.153077      0.350414      0.337988 
 H318  H     0.375012      0.190391     -0.265120 
 H319  H     0.300538      0.259950     -0.301046 
 H320  H     0.235310      0.461941      0.268267 
 H321  H     0.313972      0.380481      0.248085 
 H322  H     0.233587      0.400517      0.145162 
 H323  H     0.221728      0.289296      0.176760 
 H324  H     0.250078      0.236674     -0.183530 
 H325  H     0.187724      0.167396     -0.234270 
 H326  H     0.272209      0.029335     -0.203502 
 H327  H     0.336053      0.100426     -0.153671 
 H328  H     0.230105      0.086268     -0.126544 
 H329  H     0.086535      0.351238      0.142363 
 H330  H     0.080816      0.330219      0.234263 
 H331  H     0.092929      0.443215      0.203183 
 C332  C     0.219698     -0.202007     -0.437988 
 C333  C     0.187105     -0.185622      0.496759 
 C334  C     0.221838     -0.228182      0.434758 
 C335  C     0.288083     -0.289135      0.440059 
 C336  C     0.320336     -0.306047     -0.494603 
 C337  C     0.287880     -0.260350     -0.433183 
 O338  O     0.189169     -0.210233      0.371226 
 C339  C     0.230639     -0.241935      0.305922 
 C340  C     0.203126     -0.338326      0.287821 
 C341  C     0.114909     -0.344705      0.262272 
 C342  C     0.108190     -0.314968      0.185636 
 O343  O     0.322649     -0.273146     -0.369880 
 C344  C     0.305409     -0.207117     -0.314094 
 C345  C     0.361467     -0.224747     -0.254356 
 C346  C     0.357946     -0.149497     -0.197249 
 C347  C     0.418969     -0.164461     -0.139867 
 H348  H     0.313917     -0.325263      0.393033 
 H349  H     0.192238     -0.168142     -0.390511 
 H350  H     0.315779     -0.138313     -0.335186 
 H351  H     0.240085     -0.212429     -0.294368 
 H352  H     0.214829     -0.194456      0.264470 
 H353  H     0.298321     -0.237657      0.308913 
 H354  H     0.343701     -0.289711     -0.229604 
 H355  H     0.425922     -0.232748     -0.276045 
 H356  H     0.246957     -0.367403      0.246602 
 H357  H     0.207106     -0.382072      0.334165 
 H358  H     0.093406     -0.415419      0.267334 
 H359  H     0.072342     -0.303664      0.297538 
 H360  H     0.371308     -0.083605     -0.222295 
 H361  H     0.294439     -0.144566     -0.172594 
 H362  H     0.408145     -0.229837     -0.113549 
 H363  H     0.483448     -0.164381     -0.162063 
 H364  H     0.412830     -0.110701     -0.099009 
 H365  H     0.127737     -0.244190      0.178020 
 H366  H     0.147299     -0.357498      0.148736 
 H367  H     0.044136     -0.320350      0.169869 
 N368  N    -0.496155      0.488840     -0.183940 
 C369  C     0.464722     -0.426731     -0.207236 
 C370  C    -0.410402      0.484758     -0.216080 
 C371  C     0.457373      0.410326     -0.210812 
 C372  C    -0.410610      0.483702     -0.298302 
 H373  H    -0.375661     -0.456134     -0.197507 
 H374  H    -0.379226      0.423762     -0.197446 
 C375  C     0.466803     -0.423801     -0.289387 
 H376  H     0.400047     -0.424146     -0.184924 
 H377  H     0.496872     -0.367238     -0.185977 
 C378  C     0.455209      0.413763     -0.292883 
 H379  H     0.486893      0.346954     -0.194467 
 H380  H     0.393718      0.410987     -0.186129 
 H381  H     0.403457     -0.415733     -0.306666 
 H382  H    -0.496801     -0.365168     -0.309455 
 H383  H    -0.372542     -0.460569     -0.321086 
 H384  H    -0.383032      0.419929     -0.320078 
 H385  H     0.390792      0.420426     -0.308125 
 N386  N    -0.496252      0.491914     -0.320885 
 H387  H     0.480143      0.350428     -0.317854 
 C388  C    -0.249017     -0.179803     -0.449112 
 C389  C    -0.177674     -0.196695     -0.493286 
 C390  C    -0.172102     -0.275600      0.463712 
 C391  C    -0.241383     -0.332230      0.460462 
 C392  C    -0.313440     -0.314302     -0.496428 
 C393  C    -0.317855     -0.237008     -0.451711 
 O394  O    -0.103369     -0.301715      0.422339 
 C395  C    -0.024723     -0.301128      0.453791 
 C396  C     0.016414     -0.394089      0.442728 
 C397  C    -0.030720     -0.472656      0.479763 
 C398  C     0.011832      0.434742      0.466316 
 O399  O    -0.385451     -0.213263     -0.408218 
 C400  C    -0.461292     -0.197223     -0.441587 
 C401  C     0.496537     -0.112653     -0.408495 
 C402  C    -0.450928     -0.025513     -0.411750 
 C403  C    -0.424747      0.005225     -0.486802 
 H404  H    -0.236512     -0.392279      0.425932 
 H405  H    -0.254197     -0.119406     -0.414949 
 H406  H    -0.449443     -0.189911     -0.499114 
 H407  H     0.498421     -0.256762     -0.432921 
 H408  H     0.013877     -0.248206      0.427730 
 H409  H    -0.031870     -0.283744     -0.489423 
 H410  H     0.438403     -0.100602     -0.434219 
 H411  H     0.478395     -0.126303     -0.352745 
 H412  H     0.024034     -0.409563      0.385757 
 H413  H     0.079488     -0.390652      0.461409 
 H414  H    -0.037347     -0.458363     -0.463008 
 H415  H    -0.094103     -0.475875      0.461890 
 H416  H    -0.486652      0.029486     -0.383982 
 H417  H    -0.395423     -0.035164     -0.381944 
 H418  H    -0.389793      0.069190     -0.485499 
 H419  H    -0.384819     -0.045493      0.484610 
 H420  H    -0.478955      0.016875      0.482409 
 H421  H     0.018230      0.417890      0.409625 
 H422  H     0.074255      0.434046      0.486125 
 H423  H    -0.023900      0.379842      0.492553 
loop_  
_geom_bond_atom_site_label_1  
_geom_bond_atom_site_label_2  
Cu0   Cu1 
Cu0   O4 
Cu0   O7 
Cu0   O10 
Cu0   O13 
Cu0   N82 
Cu1   O2 
Cu1   O5 
Cu1   O8 
Cu1   O11 
Cu1   N276 
O2   C3 
C3   O4 
C3   C29 
O5   C6 
C6   O7 
C6   C85 
O8   C9 
C9   O10 
C9   C180 
O11   C12 
C12   O13 
C12   C124 
Cu14   Cu15 
Cu14   O18 
Cu14   O21 
Cu14   O24 
Cu14   O27 
Cu14   N174 
Cu15   O16 
Cu15   O19 
Cu15   O22 
Cu15   O25 
Cu15   N368 
O16   C17 
C17   O18 
C17   C121 
O19   C20 
C20   O21 
C20   C177 
O22   C23 
C23   O24 
C23   C88 
O25   C26 
C26   O27 
C26   C32 
C28   C29 
C28   C33 
C28   H45 
C29   C30 
C30   C31 
C30   O34 
C31   C32 
C31   H44 
C32   C33 
C33   O39 
O34   C35 
C35   C36 
C35   H48 
C35   H49 
C36   C37 
C36   H52 
C36   H53 
C37   C38 
C37   H54 
C37   H55 
C38   H61 
C38   H62 
C38   H63 
O39   C40 
C40   C41 
C40   H46 
C40   H47 
C41   C42 
C41   H50 
C41   H51 
C42   C43 
C42   H56 
C42   H57 
C43   H58 
C43   H59 
C43   H60 
N64   C65 
N64   C66 
N64   C67 
N64   Cu213 
C65   C71 
C65   H72 
C65   H73 
C66   C68 
C66   H69 
C66   H70 
C67   C74 
C67   H75 
C67   H76 
C68   H79 
C68   H80 
C68   N82 
C71   H77 
C71   H78 
C71   N82 
C74   H81 
C74   N82 
C74   H83 
C84   C85 
C84   C89 
C84   H101 
C85   C86 
C86   C87 
C86   O90 
C87   C88 
C87   H100 
C88   C89 
C89   O95 
O90   C91 
C91   C92 
C91   H104 
C91   H105 
C92   C93 
C92   H108 
C92   H109 
C93   C94 
C93   H110 
C93   H111 
C94   H117 
C94   H118 
C94   H119 
O95   C96 
C96   C97 
C96   H102 
C96   H103 
C97   C98 
C97   H106 
C97   H107 
C98   C99 
C98   H112 
C98   H113 
C99   H114 
C99   H115 
C99   H116 
C120   C121 
C120   C125 
C120   H137 
C121   C122 
C122   C123 
C122   O126 
C123   C124 
C123   H136 
C124   C125 
C125   O131 
O126   C127 
C127   C128 
C127   H140 
C127   H141 
C128   C129 
C128   H144 
C128   H145 
C129   C130 
C129   H146 
C129   H147 
C130   H153 
C130   H154 
C130   H155 
O131   C132 
C132   C133 
C132   H138 
C132   H139 
C133   C134 
C133   H142 
C133   H143 
C134   C135 
C134   H148 
C134   H149 
C135   H150 
C135   H151 
C135   H152 
N156   C157 
N156   C158 
N156   C159 
N156   Cu227 
C157   C163 
C157   H164 
C157   H165 
C158   C160 
C158   H161 
C158   H162 
C159   C166 
C159   H167 
C159   H168 
C160   H171 
C160   H172 
C160   N174 
C163   H169 
C163   H170 
C163   N174 
C166   H173 
C166   N174 
C166   H175 
C176   C177 
C176   C181 
C176   H193 
C177   C178 
C178   C179 
C178   O182 
C179   C180 
C179   H192 
C180   C181 
C181   O187 
O182   C183 
C183   C184 
C183   H196 
C183   H197 
C184   C185 
C184   H200 
C184   H201 
C185   C186 
C185   H202 
C185   H203 
C186   H209 
C186   H210 
C186   H211 
O187   C188 
C188   C189 
C188   H194 
C188   H195 
C189   C190 
C189   H198 
C189   H199 
C190   C191 
C190   H204 
C190   H205 
C191   H206 
C191   H207 
C191   H208 
Cu212   Cu213 
Cu212   O216 
Cu212   O219 
Cu212   O222 
Cu212   O225 
Cu212   N294 
Cu213   O214 
Cu213   O217 
Cu213   O220 
Cu213   O223 
O214   C215 
C215   O216 
C215   C241 
O217   C218 
C218   O219 
C218   C300 
O220   C221 
C221   O222 
C221   C389 
O223   C224 
C224   O225 
C224   C333 
Cu226   Cu227 
Cu226   O230 
Cu226   O233 
Cu226   O236 
Cu226   O239 
Cu226   N386 
Cu227   O228 
Cu227   O231 
Cu227   O234 
Cu227   O237 
O228   C229 
C229   O230 
C229   C336 
O231   C232 
C232   O233 
C232   C392 
O234   C235 
C235   O236 
C235   C297 
O237   C238 
C238   O239 
C238   C244 
C240   C241 
C240   C245 
C240   H257 
C241   C242 
C242   C243 
C242   O246 
C243   C244 
C243   H256 
C244   C245 
C245   O251 
O246   C247 
C247   C248 
C247   H260 
C247   H261 
C248   C249 
C248   H264 
C248   H265 
C249   C250 
C249   H266 
C249   H267 
C250   H273 
C250   H274 
C250   H275 
O251   C252 
C252   C253 
C252   H258 
C252   H259 
C253   C254 
C253   H262 
C253   H263 
C254   C255 
C254   H268 
C254   H269 
C255   H270 
C255   H271 
C255   H272 
N276   C277 
N276   C278 
N276   C279 
C277   C283 
C277   H284 
C277   H285 
C278   C280 
C278   H281 
C278   H282 
C279   C286 
C279   H287 
C279   H288 
C280   H291 
C280   H292 
C280   N294 
C283   H289 
C283   H290 
C283   N294 
C286   H293 
C286   N294 
C286   H295 
C296   C297 
C296   C301 
C296   H313 
C297   C298 
C298   C299 
C298   O302 
C299   C300 
C299   H312 
C300   C301 
C301   O307 
O302   C303 
C303   C304 
C303   H316 
C303   H317 
C304   C305 
C304   H320 
C304   H321 
C305   C306 
C305   H322 
C305   H323 
C306   H329 
C306   H330 
C306   H331 
O307   C308 
C308   C309 
C308   H314 
C308   H315 
C309   C310 
C309   H318 
C309   H319 
C310   C311 
C310   H324 
C310   H325 
C311   H326 
C311   H327 
C311   H328 
C332   C333 
C332   C337 
C332   H349 
C333   C334 
C334   C335 
C334   O338 
C335   C336 
C335   H348 
C336   C337 
C337   O343 
O338   C339 
C339   C340 
C339   H352 
C339   H353 
C340   C341 
C340   H356 
C340   H357 
C341   C342 
C341   H358 
C341   H359 
C342   H365 
C342   H366 
C342   H367 
O343   C344 
C344   C345 
C344   H350 
C344   H351 
C345   C346 
C345   H354 
C345   H355 
C346   C347 
C346   H360 
C346   H361 
C347   H362 
C347   H363 
C347   H364 
N368   C369 
N368   C370 
N368   C371 
C369   C375 
C369   H376 
C369   H377 
C370   C372 
C370   H373 
C370   H374 
C371   C378 
C371   H379 
C371   H380 
C372   H383 
C372   H384 
C372   N386 
C375   H381 
C375   H382 
C375   N386 
C378   H385 
C378   N386 
C378   H387 
C388   C389 
C388   C393 
C388   H405 
C389   C390 
C390   C391 
C390   O394 
C391   C392 
C391   H404 
C392   C393 
C393   O399 
O394   C395 
C395   C396 
C395   H408 
C395   H409 
C396   C397 
C396   H412 
C396   H413 
C397   C398 
C397   H414 
C397   H415 
C398   H421 
C398   H422 
C398   H423 
O399   C400 
C400   C401 
C400   H406 
C400   H407 
C401   C402 
C401   H410 
C401   H411 
C402   C403 
C402   H416 
C402   H417 
C403   H418 
C403   H419 
C403   H420 
  
#END  
