data_
_symmetry_cell_setting           triclinic 
_symmetry_space_group_name_H-M   'P 1' 
_symmetry_Int_Tables_number      1 
loop_ 
_symmetry_equiv_pos_site_id 
_symmetry_equiv_pos_as_xyz 
1 x,y,z 
_cell_length_a             18.201150        
_cell_length_b             10.903802        
_cell_length_c             18.906287        
_cell_angle_alpha          89.460043        
_cell_angle_beta           90.694008        
_cell_angle_gamma          88.265487        
loop_  
_atom_site_label   
_atom_site_type_symbol  
_atom_site_fract_x  
_atom_site_fract_y  
_atom_site_fract_z 
 Cu0  Cu     0.015148      0.046338      0.063435 
 Cu1  Cu     0.013206      0.030141     -0.074077 
 O2  O    -0.053883      0.175664     -0.066781 
 C3  C    -0.080950      0.203959     -0.007113 
 O4  O    -0.047921      0.192920      0.052202 
 O5  O     0.103788      0.128234     -0.068388 
 C6  C     0.129387      0.164827     -0.009416 
 O7  O     0.100048      0.151372      0.050683 
 O8  O    -0.072965     -0.072093     -0.062068 
 C9  C    -0.102791     -0.085683     -0.002200 
 O10  O    -0.075622     -0.053355      0.056893 
 O11  O     0.074310     -0.118347     -0.060322 
 C12  C     0.109775     -0.127665     -0.002155 
 O13  O     0.085438     -0.095513      0.057858 
 Cu14  Cu    -0.487625     -0.452350      0.054060 
 Cu15  Cu    -0.483598     -0.484615     -0.082235 
 O16  O     0.430238     -0.367486     -0.085568 
 C17  C     0.405172     -0.322090     -0.028639 
 O18  O     0.437895     -0.324650      0.031186 
 O19  O    -0.409137     -0.353345     -0.078668 
 C20  C    -0.382974     -0.316055     -0.020124 
 O21  O    -0.411143     -0.331508      0.040453 
 O22  O     0.447452      0.382665     -0.066959 
 C23  C     0.414478      0.376585     -0.008283 
 O24  O     0.434346      0.426493      0.049038 
 O25  O    -0.403811      0.396500     -0.059364 
 C26  C    -0.379032      0.382768      0.003504 
 O27  O    -0.411064      0.416479      0.059728 
 C28  C    -0.285689      0.240447     -0.042210 
 C29  C    -0.303698      0.326934      0.009181 
 C30  C    -0.250998      0.370664      0.056610 
 C31  C    -0.178518      0.325859      0.051062 
 C32  C    -0.159518      0.245642     -0.003467 
 C33  C    -0.212348      0.202401     -0.050775 
 O34  O    -0.270572      0.458895      0.104700 
 C35  C    -0.213154     -0.477064      0.140194 
 C36  C    -0.246784     -0.374659      0.184521 
 C37  C    -0.190782     -0.301439      0.226882 
 C38  C    -0.152684     -0.376473      0.286602 
 O39  O    -0.190495      0.123397     -0.102826 
 C40  C    -0.244698      0.071588     -0.148143 
 C41  C    -0.268352      0.162457     -0.206774 
 C42  C    -0.209044      0.184089     -0.262129 
 C43  C    -0.232411      0.280673     -0.317937 
 H44  H    -0.136771      0.353529      0.089024 
 H45  H    -0.328749      0.209233     -0.077936 
 H46  H    -0.219276     -0.011855     -0.170513 
 H47  H    -0.291396      0.041174     -0.116608 
 H48  H    -0.181275      0.457502      0.174042 
 H49  H    -0.176496     -0.438574      0.100263 
 H50  H    -0.318013      0.130168     -0.233669 
 H51  H    -0.284215      0.251351     -0.183552 
 H52  H    -0.279257     -0.311502      0.149752 
 H53  H    -0.285404     -0.414139      0.222066 
 H54  H    -0.149593     -0.264933      0.190741 
 H55  H    -0.219327     -0.220908      0.249751 
 H56  H    -0.158514      0.212666     -0.235326 
 H57  H    -0.195224      0.097067     -0.288576 
 H58  H    -0.188369      0.294875     -0.356171 
 H59  H    -0.281282      0.252845     -0.347688 
 H60  H    -0.245775      0.369319     -0.293473 
 H61  H    -0.193386     -0.415335      0.322227 
 H62  H    -0.118619     -0.452874      0.266244 
 H63  H    -0.116829     -0.319390      0.318832 
 N64  N    -0.002995      0.010842      0.312414 
 C65  C     0.061402      0.081160      0.291075 
 C66  C     0.003066     -0.112066      0.280403 
 C67  C    -0.069708      0.074803      0.283516 
 C68  C     0.005907     -0.101140      0.198394 
 H69  H     0.053087     -0.160387      0.300804 
 H70  H    -0.043976     -0.166339      0.296768 
 C71  C     0.066403      0.090282      0.209045 
 H72  H     0.056902      0.173223      0.314443 
 H73  H     0.111499      0.036014      0.313193 
 C74  C    -0.064845      0.087514      0.201443 
 H75  H    -0.118302      0.023129      0.298806 
 H76  H    -0.075632      0.166094      0.307782 
 H77  H     0.066761      0.186903      0.191452 
 H78  H     0.117746      0.046087      0.190522 
 H79  H     0.056261     -0.147241      0.178836 
 H80  H    -0.040921     -0.147457      0.174065 
 H81  H    -0.067089      0.185054      0.185353 
 N82  N     0.003956      0.029244      0.175646 
 H83  H    -0.111535      0.043765      0.175434 
 C84  C     0.256006      0.173715     -0.055067 
 C85  C     0.202171      0.224165     -0.010712 
 C86  C     0.218100      0.320730      0.035189 
 C87  C     0.289256      0.364034      0.038480 
 C88  C     0.342522      0.315377     -0.006857 
 C89  C     0.327422      0.217969     -0.051936 
 O90  O     0.169575      0.371934      0.081555 
 C91  C     0.106110      0.435626      0.052348 
 C92  C     0.057070      0.465226      0.114619 
 C93  C    -0.017424     -0.474720      0.094559 
 C94  C    -0.012547     -0.350530      0.057032 
 O95  O     0.383190      0.171111     -0.092250 
 C96  C     0.389622      0.040371     -0.097012 
 C97  C     0.470005      0.002650     -0.107981 
 C98  C    -0.476525      0.048763     -0.051052 
 C99  C    -0.493595      0.006460      0.024474 
 H100  H     0.300633      0.439662      0.074027 
 H101  H     0.243795      0.096954     -0.089498 
 H102  H     0.368588     -0.002639     -0.048758 
 H103  H     0.355097      0.012030     -0.141681 
 H104  H     0.123773     -0.480679      0.025130 
 H105  H     0.077382      0.379176      0.013445 
 H106  H     0.475110     -0.098255     -0.110248 
 H107  H     0.487336      0.036753     -0.159963 
 H108  H     0.047170      0.378761      0.142923 
 H109  H     0.085845     -0.475509      0.152006 
 H110  H    -0.047459      0.462276      0.060617 
 H111  H    -0.049867     -0.463514      0.142935 
 H112  H    -0.420411      0.017046     -0.064316 
 H113  H    -0.476092      0.149786     -0.053083 
 H114  H    -0.493316     -0.094229      0.028702 
 H115  H    -0.452694      0.039676      0.062357 
 H116  H     0.452399      0.041930      0.041467 
 H117  H     0.016215     -0.357497      0.006429 
 H118  H    -0.067668     -0.311113      0.045909 
 H119  H     0.016768     -0.285148      0.089921 
 C120  C     0.202327     -0.251287     -0.064890 
 C121  C     0.187447     -0.173204     -0.008358 
 C122  C     0.243767     -0.135536      0.036914 
 C123  C     0.314953     -0.183862      0.026876 
 C124  C     0.329331     -0.265906     -0.027952 
 C125  C     0.273245     -0.299704     -0.074738 
 O126  O     0.229088     -0.051451      0.088720 
 C127  C     0.290543      0.011136      0.117919 
 C128  C     0.264850      0.110986      0.168070 
 C129  C     0.327886      0.189343      0.194843 
 C130  C     0.384491      0.117873      0.241117 
 O131  O     0.286349     -0.375863     -0.130436 
 C132  C     0.250487     -0.491568     -0.130492 
 C133  C     0.171266     -0.487419     -0.158278 
 C134  C     0.159092     -0.413628     -0.227358 
 C135  C     0.080508     -0.418743     -0.257070 
 H136  H     0.359634     -0.159424      0.062659 
 H137  H     0.158745     -0.273544     -0.102188 
 H138  H     0.284617      0.445641     -0.162409 
 H139  H     0.251941      0.472160     -0.076126 
 H140  H     0.326593     -0.055758      0.146494 
 H141  H     0.321770      0.051375      0.074356 
 H142  H     0.154764      0.417420     -0.166755 
 H143  H     0.133901     -0.452077     -0.117423 
 H144  H     0.222990      0.170494      0.141501 
 H145  H     0.237283      0.069914      0.213418 
 H146  H     0.355641      0.229336      0.149072 
 H147  H     0.304712      0.267327      0.224670 
 H148  H     0.173011     -0.317349     -0.218847 
 H149  H     0.197900     -0.447897     -0.267036 
 H150  H     0.074947     -0.368495     -0.307600 
 H151  H     0.064978      0.486185     -0.266661 
 H152  H     0.040470     -0.377936     -0.220484 
 H153  H     0.429122      0.176441      0.258290 
 H154  H     0.358970      0.082109      0.289104 
 H155  H     0.409989      0.040403      0.212799 
 N156  N     0.498741     -0.477997      0.304937 
 C157  C     0.482793      0.402245      0.273347 
 C158  C     0.443482     -0.386517      0.277808 
 C159  C    -0.428477     -0.440045      0.280571 
 C160  C     0.448859     -0.372258      0.195643 
 H161  H     0.388599     -0.416867      0.292548 
 H162  H     0.451390     -0.298279      0.304291 
 C163  C     0.479614      0.412991      0.191254 
 H164  H    -0.474328      0.334185      0.290343 
 H165  H     0.429933      0.370351      0.293206 
 C166  C    -0.425132     -0.441018      0.198378 
 H167  H    -0.419219     -0.346777      0.299739 
 H168  H    -0.384861     -0.499855      0.304390 
 H169  H    -0.485257      0.341226      0.166930 
 H170  H     0.422977      0.399196      0.172464 
 H171  H     0.394847     -0.383551      0.169915 
 H172  H     0.466970     -0.279825      0.181070 
 H173  H    -0.386404      0.486066      0.181096 
 N174  N    -0.498076     -0.464099      0.167455 
 H175  H    -0.405320     -0.353087      0.177972 
 C176  C    -0.302886     -0.159391      0.029750 
 C177  C    -0.311328     -0.252552     -0.019774 
 C178  C    -0.252290     -0.292967     -0.061385 
 C179  C    -0.184896     -0.235859     -0.054392 
 C180  C    -0.176022     -0.144174     -0.004058 
 C181  C    -0.234293     -0.106272      0.039381 
 O182  O    -0.259845     -0.388388     -0.107108 
 C183  C    -0.202946     -0.482745     -0.104226 
 C184  C    -0.153346     -0.476816     -0.168344 
 C185  C    -0.085868      0.435453     -0.164859 
 C186  C    -0.029156      0.466894     -0.107866 
 O187  O    -0.222412     -0.018348      0.089232 
 C188  C    -0.284257      0.036700      0.124739 
 C189  C    -0.255455      0.118288      0.182847 
 C190  C    -0.315453      0.195879      0.219039 
 C191  C    -0.286595      0.263007      0.284019 
 H192  H    -0.139041     -0.264204     -0.087763 
 H193  H    -0.349638     -0.131929      0.062284 
 H194  H    -0.318152      0.089841      0.085918 
 H195  H    -0.318136     -0.034558      0.148382 
 H196  H    -0.171565     -0.477246     -0.054232 
 H197  H    -0.230854      0.429400     -0.103687 
 H198  H    -0.226840      0.059969      0.222949 
 H199  H    -0.214255      0.179738      0.161201 
 H200  H    -0.186212      0.498169     -0.214761 
 H201  H    -0.135322     -0.382721     -0.177779 
 H202  H    -0.104408      0.341689     -0.155444 
 H203  H    -0.059344      0.434135     -0.216877 
 H204  H    -0.339595      0.262819      0.180730 
 H205  H    -0.360405      0.136828      0.234796 
 H206  H    -0.244086      0.328014      0.269819 
 H207  H    -0.331105      0.314688      0.310092 
 H208  H    -0.262465      0.198177      0.323353 
 H209  H    -0.009325     -0.439640     -0.114718 
 H210  H    -0.052490      0.460220     -0.054834 
 H211  H     0.018566      0.402713     -0.109220 
 Cu212  Cu     0.000396     -0.035705     -0.437664 
 Cu213  Cu    -0.005293     -0.019109      0.424856 
 O214  O    -0.062746      0.133853      0.437571 
 C215  C    -0.092112      0.149727      0.497485 
 O216  O    -0.064760      0.114520     -0.443141 
 O217  O     0.084177      0.074520      0.437331 
 C218  C     0.118996      0.082400      0.495608 
 O219  O     0.093527      0.056011     -0.443845 
 O220  O    -0.097231     -0.110787      0.430797 
 C221  C    -0.122087     -0.143386      0.490528 
 O222  O    -0.090904     -0.128045     -0.449758 
 O223  O     0.057585     -0.171065      0.429487 
 C224  C     0.087478     -0.204877      0.487948 
 O225  O     0.059807     -0.188541     -0.451210 
 Cu226  Cu     0.499897      0.455885     -0.445805 
 Cu227  Cu     0.494846      0.483579      0.417184 
 O228  O     0.411589     -0.402605      0.437031 
 C229  C     0.386147     -0.389777      0.499064 
 O230  O     0.419327     -0.419291     -0.443445 
 O231  O    -0.439310     -0.379273      0.425937 
 C232  C    -0.403986     -0.371074      0.483780 
 O233  O    -0.423118     -0.417060     -0.457242 
 O234  O     0.425566      0.346408      0.421667 
 C235  C     0.400249      0.305887      0.479539 
 O236  O     0.425605      0.328181     -0.458960 
 O237  O    -0.416349      0.371283      0.420642 
 C238  C    -0.391004      0.327062      0.478951 
 O239  O    -0.422618      0.331688     -0.461526 
 C240  C    -0.259422      0.347822      0.450722 
 C241  C    -0.314140      0.276101      0.479890 
 C242  C    -0.297572      0.165965     -0.483650 
 C243  C    -0.223708      0.129139     -0.473506 
 C244  C    -0.169050      0.200224      0.496635 
 C245  C    -0.185895      0.310673      0.460957 
 O246  O    -0.356437      0.100950     -0.461361 
 C247  C    -0.346706     -0.007058     -0.418175 
 C248  C    -0.419287     -0.073530     -0.418043 
 C249  C    -0.485720      0.002148     -0.390870 
 C250  C    -0.483016      0.028238     -0.311359 
 O251  O    -0.130138      0.378852      0.435619 
 C252  C    -0.123678      0.496443      0.467995 
 C253  C    -0.044241     -0.464005      0.466267 
 C254  C     0.011339      0.445672     -0.497621 
 C255  C    -0.001585      0.426319     -0.418343 
 H256  H    -0.208902      0.044095     -0.445200 
 H257  H    -0.272768      0.433955      0.422917 
 H258  H    -0.159743     -0.437098      0.439080 
 H259  H    -0.143035      0.491746     -0.477135 
 H260  H    -0.303070     -0.067310     -0.439547 
 H261  H    -0.329902      0.020070     -0.364574 
 H262  H    -0.028277     -0.449058      0.410992 
 H263  H    -0.040520     -0.373882      0.491730 
 H264  H    -0.431567     -0.102717     -0.472428 
 H265  H    -0.412916     -0.159062     -0.386902 
 H266  H    -0.490770      0.089552     -0.420557 
 H267  H     0.464007     -0.047397     -0.403314 
 H268  H     0.010679      0.356501      0.475482 
 H269  H     0.066938      0.479996      0.494868 
 H270  H    -0.001303     -0.486131     -0.390057 
 H271  H    -0.054537      0.383771     -0.408679 
 H272  H     0.041499      0.365394     -0.394894 
 H273  H    -0.482942     -0.057302     -0.280199 
 H274  H    -0.433580      0.077700     -0.296560 
 H275  H     0.468959      0.084563     -0.295530 
 N276  N     0.012781     -0.000851     -0.187132 
 C277  C     0.078359     -0.068949     -0.212989 
 C278  C    -0.052535     -0.067046     -0.211377 
 C279  C     0.010542      0.122702     -0.220207 
 C280  C    -0.051377     -0.085128     -0.293147 
 H281  H    -0.054556     -0.156392     -0.183742 
 H282  H    -0.101904     -0.013291     -0.196207 
 C283  C     0.079400     -0.067000     -0.295601 
 H284  H     0.128580     -0.030408     -0.190292 
 H285  H     0.076351     -0.164093     -0.193125 
 C286  C     0.001565      0.113169     -0.302064 
 H287  H    -0.034957      0.178510     -0.198235 
 H288  H     0.061742      0.168986     -0.206371 
 H289  H     0.123646     -0.008826     -0.314559 
 H290  H     0.090466     -0.159507     -0.316627 
 H291  H    -0.043183     -0.183084     -0.305949 
 H292  H    -0.104310     -0.054792     -0.317441 
 H293  H     0.042327      0.168677     -0.329421 
 N294  N     0.009012     -0.016241     -0.324639 
 H295  H    -0.053096      0.149860     -0.318671 
 C296  C     0.211380      0.194345      0.429327 
 C297  C     0.196299      0.123793      0.489147 
 C298  C     0.251680      0.095599     -0.460673 
 C299  C     0.319862      0.151362     -0.466694 
 C300  C     0.332473      0.231228      0.476545 
 C301  C     0.279196      0.249082      0.422736 
 O302  O     0.236787      0.015245     -0.407190 
 C303  C     0.296980     -0.055476     -0.376835 
 C304  C     0.265000     -0.155175     -0.330901 
 C305  C     0.323336     -0.241094     -0.296158 
 C306  C     0.362721     -0.181815     -0.233909 
 O307  O     0.289353      0.317191      0.362892 
 C308  C     0.266999      0.444317      0.366172 
 C309  C     0.183828      0.466041      0.365623 
 C310  C     0.143807      0.419303      0.299515 
 C311  C     0.060062      0.436317      0.304147 
 H312  H     0.361938      0.136344     -0.425628 
 H313  H     0.169733      0.211615      0.388234 
 H314  H     0.291456      0.482813      0.414134 
 H315  H     0.291170      0.490679      0.320614 
 H316  H     0.330345     -0.095845     -0.419494 
 H317  H     0.332067      0.004260     -0.345318 
 H318  H     0.160606      0.424499      0.413352 
 H319  H     0.172030     -0.434707      0.370183 
 H320  H     0.231318     -0.113054     -0.289191 
 H321  H     0.227308     -0.209256     -0.363052 
 H322  H     0.297199     -0.324905     -0.277615 
 H323  H     0.363292     -0.271083     -0.336158 
 H324  H     0.163364      0.467994      0.252487 
 H325  H     0.158330      0.321880      0.291218 
 H326  H     0.043847     -0.466124      0.308505 
 H327  H     0.032054      0.400264      0.257400 
 H328  H     0.038841      0.387856      0.350485 
 H329  H     0.392529     -0.100653     -0.250523 
 H330  H     0.323007     -0.153564     -0.193484 
 H331  H     0.402258     -0.246228     -0.208264 
 C332  C     0.290691     -0.248584      0.452661 
 C333  C     0.308921     -0.340709     -0.498182 
 C334  C     0.255275     -0.394032     -0.456115 
 C335  C     0.182186     -0.350610     -0.462970 
 C336  C     0.163873     -0.259178      0.486974 
 C337  C     0.217166     -0.211373      0.442231 
 O338  O     0.276214     -0.486591     -0.410136 
 C339  C     0.223343      0.424549     -0.390455 
 C340  C     0.258213      0.344553     -0.332214 
 C341  C     0.204859      0.256334     -0.297834 
 C342  C     0.240924      0.180826     -0.237432 
 O343  O     0.196799     -0.126646      0.391283 
 C344  C     0.251145     -0.083119      0.343561 
 C345  C     0.273286     -0.181368      0.289923 
 C346  C     0.209815     -0.224123      0.242849 
 C347  C     0.233942     -0.319887      0.188278 
 H348  H     0.139632     -0.384433     -0.428240 
 H349  H     0.334556     -0.210055      0.421146 
 H350  H     0.226824     -0.001868      0.316503 
 H351  H     0.298690     -0.050198      0.373711 
 H352  H     0.172483      0.469048     -0.371359 
 H353  H     0.209152      0.370171     -0.437241 
 H354  H     0.316747     -0.145443      0.256270 
 H355  H     0.298091     -0.262319      0.317103 
 H356  H     0.305299      0.292004     -0.353636 
 H357  H     0.280958      0.403419     -0.290925 
 H358  H     0.157144      0.308847     -0.277598 
 H359  H     0.182942      0.194940     -0.338271 
 H360  H     0.166911     -0.262516      0.276326 
 H361  H     0.184180     -0.144335      0.215175 
 H362  H     0.276677     -0.284738      0.153747 
 H363  H     0.256214     -0.404189      0.213728 
 H364  H     0.187565     -0.344933      0.154147 
 H365  H     0.261869      0.240764     -0.195947 
 H366  H     0.201635      0.119704     -0.212849 
 H367  H     0.287498      0.124042     -0.256038 
 N368  N    -0.485176      0.476367     -0.194172 
 C369  C    -0.462290     -0.407731     -0.227219 
 C370  C    -0.434830      0.377623     -0.219318 
 C371  C     0.439723      0.449679     -0.219368 
 C372  C    -0.433617      0.376733     -0.302147 
 H373  H    -0.379322      0.391135     -0.197348 
 H374  H    -0.453334      0.289335     -0.198057 
 C375  C    -0.472740     -0.412030     -0.309018 
 H376  H    -0.492605     -0.328528     -0.204935 
 H377  H    -0.403840     -0.395974     -0.213849 
 C378  C     0.438251      0.431258     -0.300989 
 H379  H     0.419978      0.367374     -0.192151 
 H380  H     0.402501     -0.473279     -0.204954 
 H381  H     0.482510     -0.348002     -0.326439 
 H382  H    -0.422669     -0.382278     -0.335313 
 H383  H    -0.379788      0.405048     -0.321617 
 H384  H    -0.442271      0.283956     -0.322623 
 H385  H     0.393819      0.488234     -0.325633 
 N386  N    -0.490563      0.462707     -0.331813 
 H387  H     0.427314      0.334980     -0.313782 
 C388  C    -0.282001     -0.342396     -0.462702 
 C389  C    -0.331051     -0.311264      0.482330 
 C390  C    -0.312953     -0.224819      0.430399 
 C391  C    -0.243694     -0.172270      0.432905 
 C392  C    -0.196022     -0.199876      0.489985 
 C393  C    -0.216453     -0.279760     -0.455505 
 O394  O    -0.363469     -0.195996      0.378427 
 C395  C    -0.366674     -0.074229      0.349095 
 C396  C    -0.441413     -0.057651      0.312317 
 C397  C     0.492696     -0.069767      0.361925 
 C398  C     0.481906      0.038988      0.411897 
 O399  O    -0.171151     -0.294343     -0.397473 
 C400  C    -0.190555     -0.373123     -0.339974 
 C401  C    -0.259578     -0.329087     -0.300815 
 C402  C    -0.256563     -0.201110     -0.268469 
 C403  C    -0.329229     -0.165293     -0.232690 
 H404  H    -0.227820     -0.109126      0.391022 
 H405  H    -0.295696     -0.415235     -0.425502 
 H406  H    -0.196494     -0.466693     -0.360216 
 H407  H    -0.142628     -0.376147     -0.303906 
 H408  H    -0.359437     -0.006063      0.391124 
 H409  H    -0.321798     -0.064441      0.311079 
 H410  H    -0.307900     -0.328812     -0.336014 
 H411  H    -0.271947     -0.395334     -0.258729 
 H412  H    -0.445450      0.032932      0.286178 
 H413  H    -0.445519     -0.125428      0.269736 
 H414  H     0.442400     -0.079490      0.329912 
 H415  H     0.498898     -0.155189      0.393297 
 H416  H    -0.210932     -0.198743     -0.229815 
 H417  H    -0.244529     -0.133677     -0.310124 
 H418  H    -0.330431     -0.070328     -0.214489 
 H419  H    -0.376003     -0.174235     -0.269223 
 H420  H    -0.339063     -0.223993     -0.186441 
 H421  H     0.434757      0.025604      0.446569 
 H422  H    -0.469675      0.051640      0.445919 
 H423  H     0.471810      0.125226      0.382349 
loop_  
_geom_bond_atom_site_label_1  
_geom_bond_atom_site_label_2  
Cu0   Cu1 
Cu0   O4 
Cu0   O7 
Cu0   O10 
Cu0   O13 
Cu0   N82 
Cu1   O2 
Cu1   O5 
Cu1   O8 
Cu1   O11 
Cu1   N276 
O2   C3 
C3   O4 
C3   C32 
O5   C6 
C6   O7 
C6   C85 
O8   C9 
C9   O10 
C9   C180 
O11   C12 
C12   O13 
C12   C121 
Cu14   Cu15 
Cu14   O18 
Cu14   O21 
Cu14   O24 
Cu14   O27 
Cu14   N174 
Cu15   O16 
Cu15   O19 
Cu15   O22 
Cu15   O25 
Cu15   N368 
O16   C17 
C17   O18 
C17   C124 
O19   C20 
C20   O21 
C20   C177 
O22   C23 
C23   O24 
C23   C88 
O25   C26 
C26   O27 
C26   C29 
C28   C29 
C28   C33 
C28   H45 
C29   C30 
C30   C31 
C30   O34 
C31   C32 
C31   H44 
C32   C33 
C33   O39 
O34   C35 
C35   C36 
C35   H48 
C35   H49 
C36   C37 
C36   H52 
C36   H53 
C37   C38 
C37   H54 
C37   H55 
C38   H61 
C38   H62 
C38   H63 
O39   C40 
C40   C41 
C40   H46 
C40   H47 
C41   C42 
C41   H50 
C41   H51 
C42   C43 
C42   H56 
C42   H57 
C43   H58 
C43   H59 
C43   H60 
N64   C65 
N64   C66 
N64   C67 
N64   Cu213 
C65   C71 
C65   H72 
C65   H73 
C66   C68 
C66   H69 
C66   H70 
C67   C74 
C67   H75 
C67   H76 
C68   H79 
C68   H80 
C68   N82 
C71   H77 
C71   H78 
C71   N82 
C74   H81 
C74   N82 
C74   H83 
C84   C85 
C84   C89 
C84   H101 
C85   C86 
C86   C87 
C86   O90 
C87   C88 
C87   H100 
C88   C89 
C89   O95 
O90   C91 
C91   C92 
C91   H104 
C91   H105 
C92   C93 
C92   H108 
C92   H109 
C93   C94 
C93   H110 
C93   H111 
C94   H117 
C94   H118 
C94   H119 
O95   C96 
C96   C97 
C96   H102 
C96   H103 
C97   C98 
C97   H106 
C97   H107 
C98   C99 
C98   H112 
C98   H113 
C99   H114 
C99   H115 
C99   H116 
C120   C121 
C120   C125 
C120   H137 
C121   C122 
C122   C123 
C122   O126 
C123   C124 
C123   H136 
C124   C125 
C125   O131 
O126   C127 
C127   C128 
C127   H140 
C127   H141 
C128   C129 
C128   H144 
C128   H145 
C129   C130 
C129   H146 
C129   H147 
C130   H153 
C130   H154 
C130   H155 
O131   C132 
C132   C133 
C132   H138 
C132   H139 
C133   C134 
C133   H142 
C133   H143 
C134   C135 
C134   H148 
C134   H149 
C135   H150 
C135   H151 
C135   H152 
N156   C157 
N156   C158 
N156   C159 
N156   Cu227 
C157   C163 
C157   H164 
C157   H165 
C158   C160 
C158   H161 
C158   H162 
C159   C166 
C159   H167 
C159   H168 
C160   H171 
C160   H172 
C160   N174 
C163   H169 
C163   H170 
C163   N174 
C166   H173 
C166   N174 
C166   H175 
C176   C177 
C176   C181 
C176   H193 
C177   C178 
C178   C179 
C178   O182 
C179   C180 
C179   H192 
C180   C181 
C181   O187 
O182   C183 
C183   C184 
C183   H196 
C183   H197 
C184   C185 
C184   H200 
C184   H201 
C185   C186 
C185   H202 
C185   H203 
C186   H209 
C186   H210 
C186   H211 
O187   C188 
C188   C189 
C188   H194 
C188   H195 
C189   C190 
C189   H198 
C189   H199 
C190   C191 
C190   H204 
C190   H205 
C191   H206 
C191   H207 
C191   H208 
Cu212   Cu213 
Cu212   O216 
Cu212   O219 
Cu212   O222 
Cu212   O225 
Cu212   N294 
Cu213   O214 
Cu213   O217 
Cu213   O220 
Cu213   O223 
O214   C215 
C215   O216 
C215   C244 
O217   C218 
C218   O219 
C218   C297 
O220   C221 
C221   O222 
C221   C392 
O223   C224 
C224   O225 
C224   C336 
Cu226   Cu227 
Cu226   O230 
Cu226   O233 
Cu226   O236 
Cu226   O239 
Cu226   N386 
Cu227   O228 
Cu227   O231 
Cu227   O234 
Cu227   O237 
O228   C229 
C229   O230 
C229   C333 
O231   C232 
C232   O233 
C232   C389 
O234   C235 
C235   O236 
C235   C300 
O237   C238 
C238   O239 
C238   C241 
C240   C241 
C240   C245 
C240   H257 
C241   C242 
C242   C243 
C242   O246 
C243   C244 
C243   H256 
C244   C245 
C245   O251 
O246   C247 
C247   C248 
C247   H260 
C247   H261 
C248   C249 
C248   H264 
C248   H265 
C249   C250 
C249   H266 
C249   H267 
C250   H273 
C250   H274 
C250   H275 
O251   C252 
C252   C253 
C252   H258 
C252   H259 
C253   C254 
C253   H262 
C253   H263 
C254   C255 
C254   H268 
C254   H269 
C255   H270 
C255   H271 
C255   H272 
N276   C277 
N276   C278 
N276   C279 
C277   C283 
C277   H284 
C277   H285 
C278   C280 
C278   H281 
C278   H282 
C279   C286 
C279   H287 
C279   H288 
C280   H291 
C280   H292 
C280   N294 
C283   H289 
C283   H290 
C283   N294 
C286   H293 
C286   N294 
C286   H295 
C296   C297 
C296   C301 
C296   H313 
C297   C298 
C298   C299 
C298   O302 
C299   C300 
C299   H312 
C300   C301 
C301   O307 
O302   C303 
C303   C304 
C303   H316 
C303   H317 
C304   C305 
C304   H320 
C304   H321 
C305   C306 
C305   H322 
C305   H323 
C306   H329 
C306   H330 
C306   H331 
O307   C308 
C308   C309 
C308   H314 
C308   H315 
C309   C310 
C309   H318 
C309   H319 
C310   C311 
C310   H324 
C310   H325 
C311   H326 
C311   H327 
C311   H328 
C332   C333 
C332   C337 
C332   H349 
C333   C334 
C334   C335 
C334   O338 
C335   C336 
C335   H348 
C336   C337 
C337   O343 
O338   C339 
C339   C340 
C339   H352 
C339   H353 
C340   C341 
C340   H356 
C340   H357 
C341   C342 
C341   H358 
C341   H359 
C342   H365 
C342   H366 
C342   H367 
O343   C344 
C344   C345 
C344   H350 
C344   H351 
C345   C346 
C345   H354 
C345   H355 
C346   C347 
C346   H360 
C346   H361 
C347   H362 
C347   H363 
C347   H364 
N368   C369 
N368   C370 
N368   C371 
C369   C375 
C369   H376 
C369   H377 
C370   C372 
C370   H373 
C370   H374 
C371   C378 
C371   H379 
C371   H380 
C372   H383 
C372   H384 
C372   N386 
C375   H381 
C375   H382 
C375   N386 
C378   H385 
C378   N386 
C378   H387 
C388   C389 
C388   C393 
C388   H405 
C389   C390 
C390   C391 
C390   O394 
C391   C392 
C391   H404 
C392   C393 
C393   O399 
O394   C395 
C395   C396 
C395   H408 
C395   H409 
C396   C397 
C396   H412 
C396   H413 
C397   C398 
C397   H414 
C397   H415 
C398   H421 
C398   H422 
C398   H423 
O399   C400 
C400   C401 
C400   H406 
C400   H407 
C401   C402 
C401   H410 
C401   H411 
C402   C403 
C402   H416 
C402   H417 
C403   H418 
C403   H419 
C403   H420 
  
#END  
