data_
_symmetry_cell_setting           triclinic 
_symmetry_space_group_name_H-M   'P 1' 
_symmetry_Int_Tables_number      1 
loop_ 
_symmetry_equiv_pos_site_id 
_symmetry_equiv_pos_as_xyz 
1 x,y,z 
_cell_length_a             15.501319        
_cell_length_b             15.280154        
_cell_length_c             19.153947        
_cell_angle_alpha          89.473302        
_cell_angle_beta           89.910921        
_cell_angle_gamma          89.736036        
loop_  
_atom_site_label   
_atom_site_type_symbol  
_atom_site_fract_x  
_atom_site_fract_y  
_atom_site_fract_z 
 Cu0  Cu    -0.001032      0.003296      0.065932 
 Cu1  Cu    -0.001446      0.004187     -0.070296 
 O2  O    -0.104265      0.082568     -0.059886 
 C3  C    -0.124113      0.115697     -0.001196 
 O4  O    -0.089338      0.097070      0.057363 
 O5  O     0.078328      0.105723     -0.063406 
 C6  C     0.112474      0.125955     -0.005477 
 O7  O     0.091624      0.093140      0.053697 
 O8  O    -0.080515     -0.096307     -0.063303 
 C9  C    -0.115631     -0.116270     -0.005375 
 O10  O    -0.093619     -0.086372      0.054048 
 O11  O     0.097177     -0.078629     -0.058313 
 C12  C     0.118000     -0.112237      0.000384 
 O13  O     0.088473     -0.089425      0.059676 
 Cu14  Cu    -0.497449     -0.497257      0.067641 
 Cu15  Cu     0.498872     -0.495238     -0.068521 
 O16  O     0.405490     -0.406590     -0.059006 
 C17  C     0.377365     -0.384499      0.000941 
 O18  O     0.401025     -0.417495      0.059183 
 O19  O    -0.411958     -0.402258     -0.059270 
 C20  C    -0.389336     -0.372757      0.000109 
 O21  O    -0.422315     -0.394606      0.058403 
 O22  O     0.411135      0.411196     -0.053771 
 C23  C     0.391798      0.378108      0.005616 
 O24  O     0.426538      0.398688      0.063234 
 O25  O    -0.409453      0.414327     -0.062576 
 C26  C    -0.373216      0.395666     -0.004657 
 O27  O    -0.392337      0.427964      0.054432 
 C28  C    -0.331621      0.243706     -0.030699 
 C29  C    -0.305890      0.325539     -0.006443 
 C30  C    -0.222185      0.339768      0.018588 
 C31  C    -0.164991      0.268494      0.023155 
 C32  C    -0.190890      0.186474     -0.000681 
 C33  C    -0.274772      0.172259     -0.025426 
 O34  O    -0.199351      0.423395      0.035949 
 C35  C    -0.109813      0.441463      0.048230 
 C36  C    -0.096133     -0.460131      0.045832 
 C37  C    -0.002077     -0.433943      0.059294 
 C38  C     0.010913     -0.334996      0.067120 
 O39  O    -0.298755      0.088622     -0.041725 
 C40  C    -0.389247      0.070842     -0.049472 
 C41  C    -0.403855     -0.027128     -0.042387 
 C42  C    -0.498707     -0.053234     -0.052148 
 C43  C     0.487431     -0.152430     -0.056372 
 H44  H    -0.099487      0.276640      0.043030 
 H45  H    -0.397105      0.235585     -0.050638 
 H46  H    -0.427282      0.105390     -0.009604 
 H47  H    -0.410027      0.094947     -0.101173 
 H48  H    -0.092001      0.414247      0.099730 
 H49  H    -0.069100      0.409992      0.008480 
 H50  H    -0.363507     -0.061171     -0.080672 
 H51  H    -0.381135     -0.050163      0.009082 
 H52  H    -0.117016     -0.433663     -0.005115 
 H53  H    -0.138298     -0.429343      0.084614 
 H54  H     0.021132     -0.467825      0.106624 
 H55  H     0.038617     -0.458129      0.016398 
 H56  H     0.462829     -0.026615     -0.008831 
 H57  H     0.475900     -0.021740     -0.099802 
 H58  H     0.418552     -0.168095     -0.060970 
 H59  H    -0.479730     -0.180611     -0.101810 
 H60  H    -0.487877     -0.186649     -0.009839 
 H61  H     0.079285     -0.319456      0.075370 
 H62  H    -0.010530     -0.298640      0.020515 
 H63  H    -0.025226     -0.309109      0.111809 
 N64  N    -0.000004     -0.010247      0.317765 
 C65  C    -0.014960     -0.098750      0.289468 
 C66  C    -0.069503      0.048286      0.291719 
 C67  C     0.083072      0.022042      0.289530 
 C68  C    -0.070694      0.050912      0.210001 
 H69  H    -0.131919      0.025299      0.312518 
 H70  H    -0.059441      0.114566      0.312452 
 C71  C    -0.016947     -0.096253      0.207712 
 H72  H     0.036405     -0.143140      0.308376 
 H73  H    -0.076200     -0.124326      0.310557 
 C74  C     0.081830      0.024038      0.207856 
 H75  H     0.095113      0.088204      0.309753 
 H76  H     0.135729     -0.020278      0.309153 
 H77  H     0.032664     -0.140228      0.185916 
 H78  H    -0.079641     -0.119559      0.188355 
 H79  H    -0.133816      0.029594      0.189936 
 H80  H    -0.060834      0.118381      0.190708 
 H81  H     0.133576     -0.017759      0.186544 
 N82  N    -0.002350     -0.006248      0.180978 
 H83  H     0.093841      0.091015      0.188357 
 C84  C     0.228858      0.201343      0.058028 
 C85  C     0.184444      0.192031     -0.005163 
 C86  C     0.207982      0.242851     -0.063900 
 C87  C     0.276064      0.302426     -0.057329 
 C88  C     0.320489      0.311541      0.005655 
 C89  C     0.297549      0.260439      0.064181 
 O90  O     0.165771      0.234914     -0.126653 
 C91  C     0.188251      0.294700     -0.182401 
 C92  C     0.135820      0.276123     -0.247482 
 C93  C     0.147894      0.344602     -0.305916 
 C94  C     0.089500      0.329421     -0.369207 
 O95  O     0.342167      0.268919      0.125667 
 C96  C     0.323060      0.209798      0.182385 
 C97  C     0.383450      0.227203      0.243108 
 C98  C     0.372144      0.162291      0.304184 
 C99  C     0.435851      0.176623      0.364154 
 H100  H     0.294846      0.343261     -0.101829 
 H101  H     0.210038      0.161452      0.103028 
 H102  H     0.255568      0.219351      0.198944 
 H103  H     0.331167      0.141958      0.164299 
 H104  H     0.175976      0.362112     -0.164758 
 H105  H     0.257383      0.287572     -0.194745 
 H106  H     0.450592      0.224927      0.224558 
 H107  H     0.372544      0.294033      0.262177 
 H108  H     0.154626      0.211589     -0.267547 
 H109  H     0.067082      0.271988     -0.233755 
 H110  H     0.135115      0.410305     -0.285078 
 H111  H     0.215788      0.344377     -0.323002 
 H112  H     0.305778      0.167363      0.324413 
 H113  H     0.379487      0.095048      0.284849 
 H114  H     0.423016      0.131521      0.407945 
 H115  H    -0.497142      0.165974      0.347409 
 H116  H     0.431207      0.243585      0.384336 
 H117  H     0.102516      0.377353     -0.411011 
 H118  H     0.099584      0.263891     -0.391030 
 H119  H     0.020926      0.335070     -0.355264 
 C120  C     0.245804     -0.315376     -0.049145 
 C121  C     0.310109     -0.313835      0.002138 
 C122  C     0.312447     -0.247333      0.052281 
 C123  C     0.247549     -0.183084      0.052075 
 C124  C     0.183616     -0.184400      0.000572 
 C125  C     0.180768     -0.251261     -0.049159 
 O126  O     0.378959     -0.246385      0.099355 
 C127  C     0.407318     -0.162902      0.124206 
 C128  C    -0.498178     -0.170818      0.145137 
 C129  C    -0.455249     -0.082562      0.160228 
 C130  C    -0.357780     -0.090758      0.172266 
 O131  O     0.113704     -0.251612     -0.095706 
 C132  C     0.084461     -0.334315     -0.121366 
 C133  C    -0.011123     -0.325889     -0.138931 
 C134  C    -0.053466     -0.413193     -0.158162 
 C135  C    -0.151321     -0.405726     -0.168502 
 H136  H     0.247626     -0.131620      0.091257 
 H137  H     0.245733     -0.366512     -0.088584 
 H138  H     0.122557     -0.351615     -0.167863 
 H139  H     0.094608     -0.385674     -0.081455 
 H140  H     0.399371     -0.113014      0.082797 
 H141  H     0.367061     -0.143702      0.169005 
 H142  H    -0.045717     -0.297718     -0.094082 
 H143  H    -0.019945     -0.278717     -0.182163 
 H144  H    -0.492276     -0.213343      0.191551 
 H145  H    -0.461927     -0.204073      0.103474 
 H146  H    -0.467035     -0.037053      0.116344 
 H147  H    -0.486004     -0.052724      0.206048 
 H148  H    -0.023436     -0.438591     -0.205949 
 H149  H    -0.040031     -0.462122     -0.116985 
 H150  H    -0.179183     -0.468614     -0.183933 
 H151  H    -0.183484     -0.385923     -0.119951 
 H152  H    -0.167776     -0.356955     -0.208890 
 H153  H    -0.329118     -0.027260      0.184781 
 H154  H    -0.342920     -0.136475      0.215206 
 H155  H    -0.325106     -0.114975      0.125273 
 N156  N     0.492206     -0.494015      0.316358 
 C157  C    -0.450080      0.438121      0.287609 
 C158  C     0.404142      0.490412      0.290043 
 C159  C    -0.479716     -0.407842      0.289613 
 C160  C     0.402640      0.490699      0.208455 
 H161  H     0.380994      0.427356      0.310798 
 H162  H     0.360902     -0.458458      0.310651 
 C163  C    -0.450718      0.441042      0.206188 
 H164  H    -0.384146      0.448345      0.307379 
 H165  H    -0.471351      0.373551      0.307032 
 C166  C    -0.483662     -0.405092      0.208186 
 H167  H     0.478658     -0.356774      0.312243 
 H168  H    -0.413579     -0.395191      0.307877 
 H169  H    -0.385409      0.454422      0.186077 
 H170  H    -0.470308      0.377188      0.185134 
 H171  H     0.380996      0.426955      0.188782 
 H172  H     0.356662     -0.459930      0.188321 
 H173  H    -0.420515     -0.387216      0.186310 
 N174  N     0.489435     -0.490529      0.180237 
 H175  H     0.469979     -0.355019      0.190049 
 C176  C    -0.209563     -0.220116      0.058123 
 C177  C    -0.188536     -0.180669     -0.005891 
 C178  C    -0.233974     -0.202232     -0.066978 
 C179  C    -0.296863     -0.267632     -0.063506 
 C180  C    -0.317823     -0.306936      0.000457 
 C181  C    -0.273616     -0.284319      0.061734 
 O182  O    -0.216969     -0.160453     -0.129165 
 C183  C    -0.285306     -0.151829     -0.179909 
 C184  C    -0.284232     -0.058691     -0.208960 
 C185  C    -0.370841     -0.026397     -0.238503 
 C186  C    -0.367601      0.069488     -0.262921 
 O187  O    -0.294864     -0.323700      0.123972 
 C188  C    -0.229924     -0.335539      0.176827 
 C189  C    -0.237460     -0.429161      0.204111 
 C190  C    -0.157106     -0.463064      0.242747 
 C191  C    -0.165393      0.440934      0.265829 
 H192  H    -0.329728     -0.287792     -0.111055 
 H193  H    -0.176349     -0.200931      0.105727 
 H194  H    -0.164846     -0.323913      0.155919 
 H195  H    -0.241437     -0.287785      0.218605 
 H196  H    -0.274304     -0.200014     -0.221470 
 H197  H    -0.348686     -0.165559     -0.156541 
 H198  H    -0.293328     -0.433868      0.239348 
 H199  H    -0.251093     -0.473031      0.160118 
 H200  H    -0.263632     -0.013507     -0.167716 
 H201  H    -0.235597     -0.054363     -0.250597 
 H202  H    -0.389972     -0.068429     -0.282105 
 H203  H    -0.421441     -0.033778     -0.198576 
 H204  H    -0.100187     -0.456055      0.208766 
 H205  H    -0.145074     -0.421782      0.288462 
 H206  H    -0.106703      0.417731      0.292353 
 H207  H    -0.219659      0.431984      0.302187 
 H208  H    -0.176413      0.398163      0.220897 
 H209  H    -0.430335      0.091670     -0.283190 
 H210  H    -0.349946      0.112963     -0.219877 
 H211  H    -0.319579      0.078771     -0.304598 
 Cu212  Cu     0.005631     -0.007435     -0.431317 
 Cu213  Cu     0.000111     -0.004911      0.432764 
 O214  O    -0.076671      0.097775      0.449018 
 C215  C    -0.108623      0.117243     -0.491616 
 O216  O    -0.087322      0.081971     -0.433749 
 O217  O     0.101344      0.075447      0.440828 
 C218  C     0.124369      0.106495      0.499513 
 O219  O     0.092892      0.085405     -0.441409 
 O220  O    -0.101657     -0.083233      0.443501 
 C221  C    -0.116869     -0.120834     -0.498027 
 O222  O    -0.079637     -0.103382     -0.440666 
 O223  O     0.077400     -0.108942      0.439138 
 C224  C     0.114335     -0.128157      0.496746 
 O225  O     0.099602     -0.093006     -0.444493 
 Cu226  Cu    -0.498744      0.493817     -0.435009 
 Cu227  Cu     0.499272      0.496891      0.428924 
 O228  O     0.404836     -0.417001      0.439169 
 C229  C     0.387398     -0.383562      0.498137 
 O230  O     0.422051     -0.404010     -0.443620 
 O231  O    -0.415744     -0.406919      0.440553 
 C232  C    -0.381663     -0.387845      0.498859 
 O233  O    -0.398823     -0.424939     -0.442842 
 O234  O     0.411183      0.404001      0.436250 
 C235  C     0.379591      0.381087      0.494912 
 O236  O     0.401770      0.411297     -0.445877 
 O237  O    -0.407201      0.407483      0.435545 
 C238  C    -0.386105      0.373005      0.493781 
 O239  O    -0.418767      0.392971     -0.447242 
 C240  C    -0.282606      0.282580     -0.438895 
 C241  C    -0.315670      0.304920      0.495293 
 C242  C    -0.281308      0.266234      0.434925 
 C243  C    -0.211740      0.207831      0.441974 
 C244  C    -0.178670      0.185595     -0.492385 
 C245  C    -0.212547      0.224577     -0.432043 
 O246  O    -0.315116      0.284279      0.370163 
 C247  C    -0.286298      0.230439      0.313465 
 C248  C    -0.342253      0.245050      0.249640 
 C249  C    -0.321067      0.181084      0.190733 
 C250  C    -0.390466      0.178444      0.134111 
 O251  O    -0.176991      0.206288     -0.367971 
 C252  C    -0.201378      0.261239     -0.310698 
 C253  C    -0.137854      0.248956     -0.251243 
 C254  C    -0.155500      0.310890     -0.190135 
 C255  C    -0.081550      0.314258     -0.137352 
 H256  H    -0.183192      0.177920      0.395781 
 H257  H    -0.311012      0.311885     -0.392420 
 H258  H    -0.200895      0.330282     -0.327918 
 H259  H    -0.267198      0.244271     -0.293661 
 H260  H    -0.218621      0.246222      0.301123 
 H261  H    -0.290190      0.161111      0.329596 
 H262  H    -0.139552      0.180745     -0.232252 
 H263  H    -0.072293      0.260378     -0.271318 
 H264  H    -0.410397      0.237986      0.264651 
 H265  H    -0.334163      0.312481      0.230167 
 H266  H    -0.258732      0.198917      0.166937 
 H267  H    -0.312435      0.114904      0.212773 
 H268  H    -0.167797      0.377391     -0.210433 
 H269  H    -0.215118      0.290571     -0.163234 
 H270  H    -0.098075      0.358157     -0.094349 
 H271  H    -0.067430      0.249270     -0.114915 
 H272  H    -0.022065      0.339224     -0.161297 
 H273  H    -0.371573      0.132655      0.093007 
 H274  H    -0.452626      0.156183      0.155141 
 H275  H    -0.400577      0.243225      0.109948 
 N276  N     0.011138     -0.006203     -0.183098 
 C277  C     0.067861     -0.076540     -0.209608 
 C278  C    -0.076620     -0.021458     -0.209893 
 C279  C     0.042340      0.077785     -0.211907 
 C280  C    -0.077575     -0.022111     -0.291244 
 H281  H    -0.099290     -0.084891     -0.189563 
 H282  H    -0.120435      0.029478     -0.189794 
 C283  C     0.067033     -0.077854     -0.291167 
 H284  H     0.133845     -0.066293     -0.189963 
 H285  H     0.045801     -0.139622     -0.187971 
 C286  C     0.041491      0.076748     -0.293384 
 H287  H     0.001766      0.131418     -0.191870 
 H288  H     0.108321      0.088892     -0.192638 
 H289  H     0.132655     -0.068698     -0.312146 
 H290  H     0.044341     -0.141487     -0.310293 
 H291  H    -0.102250     -0.085079     -0.310346 
 H292  H    -0.121040      0.029390     -0.311623 
 H293  H     0.106873      0.087820     -0.314033 
 N294  N     0.010083     -0.008081     -0.319172 
 H295  H     0.000307      0.129714     -0.314454 
 C296  C     0.311712      0.252196     -0.448314 
 C297  C     0.312200      0.310872      0.495082 
 C298  C     0.252306      0.303157      0.440339 
 C299  C     0.193411      0.233792      0.441683 
 C300  C     0.192723      0.175557      0.498384 
 C301  C     0.252198      0.183359     -0.446765 
 O302  O     0.252799      0.363554      0.386999 
 C303  C     0.176443      0.374621      0.345333 
 C304  C     0.188507      0.456579      0.300793 
 C305  C     0.106587      0.489175      0.263630 
 C306  C     0.118592     -0.420549      0.229338 
 O307  O     0.248574      0.123131     -0.393472 
 C308  C     0.320174      0.112460     -0.346896 
 C309  C     0.300291      0.032500     -0.301803 
 C310  C     0.375797      0.000512     -0.256365 
 C311  C     0.355625     -0.085109     -0.217334 
 H312  H     0.146675      0.226004      0.399600 
 H313  H     0.358266      0.259475     -0.406072 
 H314  H     0.379801      0.103045     -0.377420 
 H315  H     0.327379      0.171284     -0.314606 
 H316  H     0.167320      0.316980      0.312041 
 H317  H     0.119917      0.381134      0.379949 
 H318  H     0.244785      0.047073     -0.267832 
 H319  H     0.279774     -0.021230     -0.335875 
 H320  H     0.213358     -0.490785      0.334016 
 H321  H     0.238479      0.443972      0.261234 
 H322  H     0.087244      0.441444      0.223918 
 H323  H     0.052921      0.492366      0.301173 
 H324  H     0.433215     -0.009088     -0.289324 
 H325  H     0.392798      0.051525     -0.218591 
 H326  H     0.411817     -0.108549     -0.187655 
 H327  H     0.302019     -0.076700     -0.180279 
 H328  H     0.337716     -0.137276     -0.253639 
 H329  H     0.058071     -0.396586      0.206224 
 H330  H     0.139170     -0.371653      0.267557 
 H331  H     0.167557     -0.422490      0.187755 
 C332  C     0.261273     -0.174759     -0.469907 
 C333  C     0.184058     -0.195661      0.496504 
 C334  C     0.171643     -0.277168      0.465239 
 C335  C     0.240099     -0.337412      0.464827 
 C336  C     0.317398     -0.316361      0.498215 
 C337  C     0.329587     -0.235147     -0.469961 
 O338  O     0.092277     -0.295530      0.437740 
 C339  C     0.067080     -0.385706      0.436668 
 C340  C    -0.030783     -0.391406      0.432917 
 C341  C    -0.064275     -0.485652      0.441120 
 C342  C    -0.162795     -0.492221      0.446393 
 O343  O     0.408558     -0.217703     -0.441294 
 C344  C     0.432342     -0.127705     -0.433737 
 C345  C    -0.469896     -0.121824     -0.428773 
 C346  C    -0.436560     -0.027216     -0.433396 
 C347  C    -0.337867     -0.020315     -0.435728 
 H348  H     0.233110     -0.400876      0.439703 
 H349  H     0.268125     -0.111336     -0.444676 
 H350  H     0.408778     -0.089408     -0.478897 
 H351  H     0.401474     -0.101918     -0.386383 
 H352  H     0.097056     -0.416947      0.391167 
 H353  H     0.090997     -0.419267      0.484017 
 H354  H    -0.447858     -0.152746     -0.379737 
 H355  H    -0.440832     -0.160594     -0.470908 
 H356  H    -0.059070     -0.350102      0.473855 
 H357  H    -0.053389     -0.363291      0.383005 
 H358  H    -0.041587      0.475173      0.396779 
 H359  H    -0.035493      0.483956      0.488011 
 H360  H    -0.463408      0.005041     -0.480257 
 H361  H    -0.461458      0.009927     -0.388700 
 H362  H    -0.317102      0.048388     -0.436468 
 H363  H    -0.307459     -0.052440     -0.390417 
 H364  H    -0.311413     -0.050919     -0.482785 
 H365  H    -0.183597      0.439133      0.448552 
 H366  H    -0.187121     -0.460619      0.493763 
 H367  H    -0.195162     -0.460997      0.401604 
 N368  N    -0.498511     -0.492172     -0.183707 
 C369  C    -0.420547      0.463525     -0.211234 
 C370  C     0.424826      0.461008     -0.210001 
 C371  C     0.499549     -0.401910     -0.212494 
 C372  C     0.424479      0.459337     -0.291703 
 H373  H     0.425017      0.393720     -0.188652 
 H374  H     0.366095      0.493305     -0.189995 
 C375  C    -0.420872      0.463309     -0.292888 
 H376  H    -0.362693      0.496701     -0.191192 
 H377  H    -0.418457      0.395795     -0.190886 
 C378  C     0.497728     -0.402907     -0.294239 
 H379  H     0.442579     -0.367243     -0.191769 
 H380  H    -0.443359     -0.366427     -0.193671 
 H381  H    -0.363784      0.497558     -0.313828 
 H382  H    -0.417586      0.395587     -0.312150 
 H383  H     0.425575      0.391243     -0.310337 
 H384  H     0.365109      0.489823     -0.312568 
 H385  H    -0.447153     -0.366391     -0.316155 
 N386  N    -0.499791     -0.493804     -0.320462 
 H387  H     0.438893     -0.370248     -0.313913 
 C388  C    -0.245261     -0.189904      0.448042 
 C389  C    -0.184818     -0.190747     -0.497624 
 C390  C    -0.188652     -0.255139     -0.444787 
 C391  C    -0.255056     -0.317113     -0.445585 
 C392  C    -0.315252     -0.316475      0.499865 
 C393  C    -0.312331     -0.251120      0.447766 
 O394  O    -0.128331     -0.256248     -0.392679 
 C395  C    -0.090065     -0.339233     -0.374726 
 C396  C     0.005379     -0.323691     -0.361095 
 C397  C     0.059420     -0.407950     -0.354429 
 C398  C     0.155689     -0.390323     -0.342841 
 O399  O    -0.374498     -0.247919      0.397110 
 C400  C    -0.409176     -0.163204      0.379365 
 C401  C     0.494728     -0.173549      0.365476 
 C402  C     0.445223     -0.086363      0.360030 
 C403  C     0.348415     -0.098283      0.346751 
 H404  H    -0.258062     -0.366378     -0.404047 
 H405  H    -0.242007     -0.140795      0.406390 
 H406  H    -0.398455     -0.116733      0.422050 
 H407  H    -0.375310     -0.137942      0.332893 
 H408  H    -0.122617     -0.365731     -0.328051 
 H409  H    -0.098725     -0.386439     -0.417195 
 H410  H     0.485685     -0.210461      0.317011 
 H411  H     0.465997     -0.213699      0.407534 
 H412  H     0.031989     -0.283045     -0.403792 
 H413  H     0.012351     -0.285150     -0.313191 
 H414  H     0.034360     -0.448536     -0.311310 
 H415  H     0.051488     -0.447112     -0.401897 
 H416  H     0.454137     -0.049371      0.408495 
 H417  H     0.473362     -0.045754      0.318187 
 H418  H     0.314525     -0.034980      0.344628 
 H419  H     0.336689     -0.131924      0.297236 
 H420  H     0.318252     -0.137436      0.388479 
 H421  H     0.192872     -0.451629     -0.339559 
 H422  H     0.182939     -0.351365     -0.385995 
 H423  H     0.166584     -0.353998     -0.294428 
loop_  
_geom_bond_atom_site_label_1  
_geom_bond_atom_site_label_2  
Cu0   Cu1 
Cu0   O4 
Cu0   O7 
Cu0   O10 
Cu0   O13 
Cu0   N82 
Cu1   O2 
Cu1   O5 
Cu1   O8 
Cu1   O11 
Cu1   N276 
O2   C3 
C3   O4 
C3   C32 
O5   C6 
C6   O7 
C6   C85 
O8   C9 
C9   O10 
C9   C177 
O11   C12 
C12   O13 
C12   C124 
Cu14   Cu15 
Cu14   O18 
Cu14   O21 
Cu14   O24 
Cu14   O27 
Cu14   N174 
Cu15   O16 
Cu15   O19 
Cu15   O22 
Cu15   O25 
Cu15   N368 
O16   C17 
C17   O18 
C17   C121 
O19   C20 
C20   O21 
C20   C180 
O22   C23 
C23   O24 
C23   C88 
O25   C26 
C26   O27 
C26   C29 
C28   C29 
C28   C33 
C28   H45 
C29   C30 
C30   C31 
C30   O34 
C31   C32 
C31   H44 
C32   C33 
C33   O39 
O34   C35 
C35   C36 
C35   H48 
C35   H49 
C36   C37 
C36   H52 
C36   H53 
C37   C38 
C37   H54 
C37   H55 
C38   H61 
C38   H62 
C38   H63 
O39   C40 
C40   C41 
C40   H46 
C40   H47 
C41   C42 
C41   H50 
C41   H51 
C42   C43 
C42   H56 
C42   H57 
C43   H58 
C43   H59 
C43   H60 
N64   C65 
N64   C66 
N64   C67 
N64   Cu213 
C65   C71 
C65   H72 
C65   H73 
C66   C68 
C66   H69 
C66   H70 
C67   C74 
C67   H75 
C67   H76 
C68   H79 
C68   H80 
C68   N82 
C71   H77 
C71   H78 
C71   N82 
C74   H81 
C74   N82 
C74   H83 
C84   C85 
C84   C89 
C84   H101 
C85   C86 
C86   C87 
C86   O90 
C87   C88 
C87   H100 
C88   C89 
C89   O95 
O90   C91 
C91   C92 
C91   H104 
C91   H105 
C92   C93 
C92   H108 
C92   H109 
C93   C94 
C93   H110 
C93   H111 
C94   H117 
C94   H118 
C94   H119 
O95   C96 
C96   C97 
C96   H102 
C96   H103 
C97   C98 
C97   H106 
C97   H107 
C98   C99 
C98   H112 
C98   H113 
C99   H114 
C99   H115 
C99   H116 
C120   C121 
C120   C125 
C120   H137 
C121   C122 
C122   C123 
C122   O126 
C123   C124 
C123   H136 
C124   C125 
C125   O131 
O126   C127 
C127   C128 
C127   H140 
C127   H141 
C128   C129 
C128   H144 
C128   H145 
C129   C130 
C129   H146 
C129   H147 
C130   H153 
C130   H154 
C130   H155 
O131   C132 
C132   C133 
C132   H138 
C132   H139 
C133   C134 
C133   H142 
C133   H143 
C134   C135 
C134   H148 
C134   H149 
C135   H150 
C135   H151 
C135   H152 
N156   C157 
N156   C158 
N156   C159 
N156   Cu227 
C157   C163 
C157   H164 
C157   H165 
C158   C160 
C158   H161 
C158   H162 
C159   C166 
C159   H167 
C159   H168 
C160   H171 
C160   H172 
C160   N174 
C163   H169 
C163   H170 
C163   N174 
C166   H173 
C166   N174 
C166   H175 
C176   C177 
C176   C181 
C176   H193 
C177   C178 
C178   C179 
C178   O182 
C179   C180 
C179   H192 
C180   C181 
C181   O187 
O182   C183 
C183   C184 
C183   H196 
C183   H197 
C184   C185 
C184   H200 
C184   H201 
C185   C186 
C185   H202 
C185   H203 
C186   H209 
C186   H210 
C186   H211 
O187   C188 
C188   C189 
C188   H194 
C188   H195 
C189   C190 
C189   H198 
C189   H199 
C190   C191 
C190   H204 
C190   H205 
C191   H206 
C191   H207 
C191   H208 
Cu212   Cu213 
Cu212   O216 
Cu212   O219 
Cu212   O222 
Cu212   O225 
Cu212   N294 
Cu213   O214 
Cu213   O217 
Cu213   O220 
Cu213   O223 
O214   C215 
C215   O216 
C215   C244 
O217   C218 
C218   O219 
C218   C300 
O220   C221 
C221   O222 
C221   C389 
O223   C224 
C224   O225 
C224   C333 
Cu226   Cu227 
Cu226   O230 
Cu226   O233 
Cu226   O236 
Cu226   O239 
Cu226   N386 
Cu227   O228 
Cu227   O231 
Cu227   O234 
Cu227   O237 
O228   C229 
C229   O230 
C229   C336 
O231   C232 
C232   O233 
C232   C392 
O234   C235 
C235   O236 
C235   C297 
O237   C238 
C238   O239 
C238   C241 
C240   C241 
C240   C245 
C240   H257 
C241   C242 
C242   C243 
C242   O246 
C243   C244 
C243   H256 
C244   C245 
C245   O251 
O246   C247 
C247   C248 
C247   H260 
C247   H261 
C248   C249 
C248   H264 
C248   H265 
C249   C250 
C249   H266 
C249   H267 
C250   H273 
C250   H274 
C250   H275 
O251   C252 
C252   C253 
C252   H258 
C252   H259 
C253   C254 
C253   H262 
C253   H263 
C254   C255 
C254   H268 
C254   H269 
C255   H270 
C255   H271 
C255   H272 
N276   C277 
N276   C278 
N276   C279 
C277   C283 
C277   H284 
C277   H285 
C278   C280 
C278   H281 
C278   H282 
C279   C286 
C279   H287 
C279   H288 
C280   H291 
C280   H292 
C280   N294 
C283   H289 
C283   H290 
C283   N294 
C286   H293 
C286   N294 
C286   H295 
C296   C297 
C296   C301 
C296   H313 
C297   C298 
C298   C299 
C298   O302 
C299   C300 
C299   H312 
C300   C301 
C301   O307 
O302   C303 
C303   C304 
C303   H316 
C303   H317 
C304   C305 
C304   H320 
C304   H321 
C305   C306 
C305   H322 
C305   H323 
C306   H329 
C306   H330 
C306   H331 
O307   C308 
C308   C309 
C308   H314 
C308   H315 
C309   C310 
C309   H318 
C309   H319 
C310   C311 
C310   H324 
C310   H325 
C311   H326 
C311   H327 
C311   H328 
C332   C333 
C332   C337 
C332   H349 
C333   C334 
C334   C335 
C334   O338 
C335   C336 
C335   H348 
C336   C337 
C337   O343 
O338   C339 
C339   C340 
C339   H352 
C339   H353 
C340   C341 
C340   H356 
C340   H357 
C341   C342 
C341   H358 
C341   H359 
C342   H365 
C342   H366 
C342   H367 
O343   C344 
C344   C345 
C344   H350 
C344   H351 
C345   C346 
C345   H354 
C345   H355 
C346   C347 
C346   H360 
C346   H361 
C347   H362 
C347   H363 
C347   H364 
N368   C369 
N368   C370 
N368   C371 
C369   C375 
C369   H376 
C369   H377 
C370   C372 
C370   H373 
C370   H374 
C371   C378 
C371   H379 
C371   H380 
C372   H383 
C372   H384 
C372   N386 
C375   H381 
C375   H382 
C375   N386 
C378   H385 
C378   N386 
C378   H387 
C388   C389 
C388   C393 
C388   H405 
C389   C390 
C390   C391 
C390   O394 
C391   C392 
C391   H404 
C392   C393 
C393   O399 
O394   C395 
C395   C396 
C395   H408 
C395   H409 
C396   C397 
C396   H412 
C396   H413 
C397   C398 
C397   H414 
C397   H415 
C398   H421 
C398   H422 
C398   H423 
O399   C400 
C400   C401 
C400   H406 
C400   H407 
C401   C402 
C401   H410 
C401   H411 
C402   C403 
C402   H416 
C402   H417 
C403   H418 
C403   H419 
C403   H420 
  
#END  
