data_
_symmetry_cell_setting           triclinic 
_symmetry_space_group_name_H-M   'P 1' 
_symmetry_Int_Tables_number      1 
loop_ 
_symmetry_equiv_pos_site_id 
_symmetry_equiv_pos_as_xyz 
1 x,y,z 
_cell_length_a             15.525713        
_cell_length_b             15.260493        
_cell_length_c             19.130465        
_cell_angle_alpha          88.221515        
_cell_angle_beta           89.501979        
_cell_angle_gamma          90.206334        
loop_  
_atom_site_label   
_atom_site_type_symbol  
_atom_site_fract_x  
_atom_site_fract_y  
_atom_site_fract_z 
 Cu0  Cu     0.003505     -0.016423      0.066887 
 Cu1  Cu     0.003726     -0.009210     -0.069229 
 O2  O    -0.091555      0.076038     -0.062190 
 C3  C    -0.109031      0.109976     -0.003917 
 O4  O    -0.071574      0.090602      0.053752 
 O5  O     0.090302      0.086501     -0.056587 
 C6  C     0.128402      0.095810      0.001524 
 O7  O     0.109661      0.055592      0.058952 
 O8  O    -0.083148     -0.105572     -0.058392 
 C9  C    -0.118703     -0.125354      0.000428 
 O10  O    -0.099883     -0.091656      0.058462 
 O11  O     0.098453     -0.094934     -0.061193 
 C12  C     0.114637     -0.135485     -0.003656 
 O13  O     0.077599     -0.122167      0.054831 
 Cu14  Cu    -0.498459      0.487874      0.072953 
 Cu15  Cu    -0.499155      0.487141     -0.063185 
 O16  O     0.416504     -0.416046     -0.055702 
 C17  C     0.379056     -0.401327      0.002217 
 O18  O     0.398863     -0.435790      0.061423 
 O19  O    -0.405916     -0.425385     -0.063202 
 C20  C    -0.387491     -0.389233     -0.006246 
 O21  O    -0.421483     -0.408298      0.053363 
 O22  O     0.404637      0.403316     -0.049401 
 C23  C     0.387105      0.366896      0.009802 
 O24  O     0.424474      0.382364      0.067295 
 O25  O    -0.413489      0.391082     -0.046552 
 C26  C    -0.376349      0.375217      0.011791 
 O27  O    -0.394962      0.411693      0.068862 
 C28  C    -0.187283      0.224181      0.060215 
 C29  C    -0.179084      0.178119     -0.001697 
 C30  C    -0.235071      0.196003     -0.057918 
 C31  C    -0.298146      0.260786     -0.050515 
 C32  C    -0.306242      0.307102      0.011164 
 C33  C    -0.250518      0.289114      0.067501 
 O34  O    -0.228615      0.150870     -0.118889 
 C35  C    -0.292290      0.166704     -0.172134 
 C36  C    -0.273956      0.110896     -0.234945 
 C37  C    -0.340721      0.121880     -0.293415 
 C38  C    -0.319981      0.067805     -0.357665 
 O39  O    -0.258005      0.334839      0.128060 
 C40  C    -0.196114      0.318774      0.182533 
 C41  C    -0.215611      0.376099      0.244285 
 C42  C    -0.151600      0.363693      0.304663 
 C43  C    -0.171541      0.421029      0.367192 
 H44  H    -0.342294      0.275448     -0.093390 
 H45  H    -0.143193      0.209481      0.103108 
 H46  H    -0.199144      0.249131      0.199523 
 H47  H    -0.131037      0.333291      0.161641 
 H48  H    -0.356558      0.150917     -0.150131 
 H49  H    -0.290659      0.236553     -0.188634 
 H50  H    -0.215974      0.445519      0.226624 
 H51  H    -0.280904      0.360673      0.264001 
 H52  H    -0.210120      0.128933     -0.256353 
 H53  H    -0.270794      0.041325     -0.218006 
 H54  H    -0.404862      0.103174     -0.272807 
 H55  H    -0.344936      0.191638     -0.309652 
 H56  H    -0.151552      0.294315      0.322438 
 H57  H    -0.085849      0.378143      0.285433 
 H58  H    -0.125660      0.408744      0.409803 
 H59  H    -0.168241      0.491102      0.352641 
 H60  H    -0.236449      0.407798      0.388352 
 H61  H    -0.368489      0.077918     -0.398616 
 H62  H    -0.257092      0.086208     -0.380556 
 H63  H    -0.317820     -0.002658     -0.344373 
 N64  N     0.003339      0.004868      0.316879 
 C65  C     0.065866     -0.060919      0.292683 
 C66  C    -0.082613     -0.019705      0.291321 
 C67  C     0.026180      0.091075      0.284262 
 C68  C    -0.083099     -0.022026      0.209580 
 H69  H    -0.100688     -0.084201      0.314543 
 H70  H    -0.129880      0.027689      0.310451 
 C71  C     0.065108     -0.066205      0.211185 
 H72  H     0.130571     -0.043325      0.311090 
 H73  H     0.049629     -0.125300      0.317206 
 C74  C     0.028297      0.086233      0.202694 
 H75  H    -0.021111      0.140055      0.301165 
 H76  H     0.089094      0.112138      0.303939 
 H77  H     0.129861     -0.052928      0.189016 
 H78  H     0.046840     -0.132684      0.195577 
 H79  H    -0.104087     -0.086712      0.192184 
 H80  H    -0.129075      0.026108      0.187535 
 H81  H     0.093248      0.102062      0.182192 
 N82  N     0.003570     -0.002362      0.180407 
 H83  H    -0.015761      0.134830      0.178767 
 C84  C     0.181270      0.244175     -0.030099 
 C85  C     0.198443      0.163254      0.002803 
 C86  C     0.276597      0.147871      0.037408 
 C87  C     0.335075      0.217454      0.044048 
 C88  C     0.317734      0.298477      0.011035 
 C89  C     0.240620      0.313161     -0.025232 
 O90  O     0.294674      0.065012      0.062603 
 C91  C     0.383545      0.039095      0.059742 
 C92  C     0.389814     -0.060422      0.060321 
 C93  C     0.483260     -0.092638      0.055121 
 C94  C     0.492199     -0.192366      0.063446 
 O95  O     0.226538      0.395367     -0.053773 
 C96  C     0.148529      0.413227     -0.091157 
 C97  C     0.072554      0.423815     -0.041051 
 C98  C    -0.014932      0.429119     -0.077699 
 C99  C    -0.090708      0.443101     -0.027322 
 H100  H     0.395609      0.207571      0.071860 
 H101  H     0.120271      0.253245     -0.057481 
 H102  H     0.159601      0.474939     -0.121117 
 H103  H     0.137137      0.362001     -0.129373 
 H104  H     0.414009      0.067504      0.011968 
 H105  H     0.417596      0.065377      0.104776 
 H106  H     0.070436      0.370081     -0.001318 
 H107  H     0.082554      0.484205     -0.012297 
 H108  H     0.359242     -0.089291      0.107716 
 H109  H     0.352331     -0.085605      0.016791 
 H110  H    -0.488671     -0.070669      0.004475 
 H111  H    -0.478028     -0.061068      0.095185 
 H112  H    -0.012994      0.482944     -0.117281 
 H113  H    -0.025796      0.368461     -0.106157 
 H114  H    -0.152200      0.445801     -0.055395 
 H115  H    -0.095548      0.389460      0.012213 
 H116  H    -0.083866     -0.495213      0.000338 
 H117  H    -0.439785     -0.211849      0.061986 
 H118  H     0.464741     -0.217129      0.113402 
 H119  H     0.459431     -0.226153      0.021305 
 C120  C     0.177851     -0.272199      0.047402 
 C121  C     0.182521     -0.205248     -0.004334 
 C122  C     0.249381     -0.203286     -0.054516 
 C123  C     0.310688     -0.270463     -0.053365 
 C124  C     0.307173     -0.336052     -0.000571 
 C125  C     0.239578     -0.339055      0.048631 
 O126  O     0.253616     -0.136013     -0.103626 
 C127  C     0.337064     -0.103573     -0.125321 
 C128  C     0.332315     -0.003804     -0.128789 
 C129  C     0.419828      0.041780     -0.141813 
 C130  C     0.413037      0.141965     -0.148866 
 O131  O     0.236412     -0.407217      0.096792 
 C132  C     0.153240     -0.440378      0.117540 
 C133  C     0.164231      0.464582      0.142484 
 C134  C     0.078920      0.417505      0.160994 
 C135  C     0.091062      0.321438      0.184679 
 H136  H     0.362121     -0.270101     -0.092684 
 H137  H     0.126264     -0.272922      0.086580 
 H138  H     0.127333     -0.400176      0.159447 
 H139  H     0.108568     -0.435192      0.073255 
 H140  H     0.387523     -0.125429     -0.088701 
 H141  H     0.352851     -0.130000     -0.176768 
 H142  H     0.197904      0.428431      0.101451 
 H143  H     0.206705      0.461922      0.188316 
 H144  H     0.286826      0.017201     -0.169683 
 H145  H     0.304358      0.019150     -0.079538 
 H146  H     0.463632      0.024214     -0.098717 
 H147  H     0.450259      0.016570     -0.189222 
 H148  H     0.045188      0.452691      0.202390 
 H149  H     0.036223      0.420563      0.115345 
 H150  H     0.028853      0.290096      0.197454 
 H151  H     0.122006      0.283560      0.143464 
 H152  H     0.131425      0.315854      0.231527 
 H153  H     0.476658      0.172379     -0.157491 
 H154  H     0.372087      0.162142     -0.193059 
 H155  H     0.385104      0.169780     -0.101479 
 N156  N     0.498491     -0.486365      0.322536 
 C157  C    -0.433616      0.454112      0.297721 
 C158  C     0.414526      0.480596      0.298040 
 C159  C    -0.485993     -0.398696      0.289503 
 C160  C     0.413464      0.476229      0.216511 
 H161  H     0.402740      0.414845      0.321637 
 H162  H     0.362777     -0.476760      0.317117 
 C163  C    -0.434320      0.449691      0.216239 
 H164  H    -0.370559      0.477466      0.315883 
 H165  H    -0.444026      0.388218      0.321724 
 C166  C    -0.487546     -0.403302      0.207858 
 H167  H     0.464841     -0.352970      0.308311 
 H168  H    -0.423303     -0.373713      0.307079 
 H169  H    -0.371825      0.471694      0.194028 
 H170  H    -0.444249      0.381556      0.200274 
 H171  H     0.400066      0.408787      0.200442 
 H172  H     0.361863     -0.482169      0.194477 
 H173  H    -0.426003     -0.379525      0.185054 
 N174  N     0.496976     -0.494282      0.186134 
 H175  H     0.461619     -0.360745      0.185720 
 C176  C    -0.276593     -0.307328      0.055515 
 C177  C    -0.318594     -0.319971     -0.007619 
 C178  C    -0.296742     -0.269102     -0.067761 
 C179  C    -0.230339     -0.206698     -0.063725 
 C180  C    -0.188733     -0.193619     -0.000169 
 C181  C    -0.211821     -0.243648      0.060055 
 O182  O    -0.341435     -0.281139     -0.128281 
 C183  C    -0.331269     -0.218002     -0.185013 
 C184  C    -0.396899     -0.238502     -0.240792 
 C185  C    -0.397766     -0.171105     -0.302063 
 C186  C    -0.464074     -0.192274     -0.358052 
 O187  O    -0.170601     -0.230314      0.121856 
 C188  C    -0.188571     -0.289877      0.179605 
 C189  C    -0.138836     -0.260474      0.242482 
 C190  C    -0.145475     -0.325566      0.304844 
 C191  C    -0.101502     -0.291890      0.369971 
 H192  H    -0.211300     -0.167457     -0.110041 
 H193  H    -0.294700     -0.348365      0.101137 
 H194  H    -0.258048     -0.289625      0.191937 
 H195  H    -0.169615     -0.356611      0.165353 
 H196  H    -0.341463     -0.151535     -0.165567 
 H197  H    -0.265322     -0.221901     -0.206490 
 H198  H    -0.070547     -0.250208      0.228205 
 H199  H    -0.164230     -0.196743      0.258235 
 H200  H    -0.383363     -0.303752     -0.261138 
 H201  H    -0.461593     -0.242108     -0.216731 
 H202  H    -0.411228     -0.105716     -0.281869 
 H203  H    -0.333198     -0.167268     -0.326370 
 H204  H    -0.213771     -0.339332      0.317097 
 H205  H    -0.116608     -0.388310      0.290409 
 H206  H    -0.106725     -0.340024      0.413602 
 H207  H    -0.032904     -0.277952      0.360752 
 H208  H    -0.131511     -0.230846      0.386465 
 H209  H    -0.464203     -0.141530     -0.400032 
 H210  H    -0.450121     -0.255158     -0.382218 
 H211  H     0.470464     -0.196428     -0.336025 
 Cu212  Cu     0.002377      0.006876     -0.432317 
 Cu213  Cu     0.001237      0.007595      0.431409 
 O214  O    -0.087408      0.101056      0.435843 
 C215  C    -0.119695      0.120355      0.494843 
 O216  O    -0.097059      0.087869     -0.445942 
 O217  O     0.095372      0.096246      0.437994 
 C218  C     0.113008      0.131543      0.495687 
 O219  O     0.079837      0.109544     -0.445175 
 O220  O    -0.093819     -0.079211      0.446289 
 C221  C    -0.111212     -0.113846     -0.493759 
 O222  O    -0.075632     -0.095206     -0.436409 
 O223  O     0.088077     -0.087954      0.445663 
 C224  C     0.122800     -0.106502     -0.495554 
 O225  O     0.102139     -0.072663     -0.437846 
 Cu226  Cu    -0.497578     -0.493671     -0.426737 
 Cu227  Cu    -0.495316     -0.490125      0.436976 
 O228  O     0.411075     -0.403804      0.440637 
 C229  C     0.392410     -0.368410      0.498157 
 O230  O     0.424271     -0.390193     -0.442537 
 O231  O    -0.410953     -0.392458      0.446116 
 C232  C    -0.378586     -0.375668     -0.494740 
 O233  O    -0.396632     -0.414682     -0.436631 
 O234  O     0.418275      0.413870      0.450532 
 C235  C     0.380608      0.396364     -0.491172 
 O236  O     0.401053      0.428251     -0.432931 
 O237  O    -0.403003      0.420623      0.449847 
 C238  C    -0.383705      0.385755     -0.490973 
 O239  O    -0.417308      0.404906     -0.432411 
 C240  C    -0.315636      0.260760      0.450354 
 C241  C    -0.316301      0.315590     -0.492204 
 C242  C    -0.253504      0.307492     -0.439964 
 C243  C    -0.190313      0.242590     -0.445543 
 C244  C    -0.189156      0.188346      0.496779 
 C245  C    -0.251860      0.196411      0.444496 
 O246  O    -0.254756      0.364147     -0.385729 
 C247  C    -0.177368      0.375781     -0.346360 
 C248  C    -0.189833      0.454773     -0.300771 
 C249  C    -0.108270      0.483582     -0.262807 
 C250  C    -0.120873     -0.430997     -0.223708 
 O251  O    -0.248387      0.140678      0.389738 
 C252  C    -0.323889      0.127441      0.348506 
 C253  C    -0.305004      0.050392      0.302171 
 C254  C    -0.382803      0.016092      0.262077 
 C255  C    -0.362720     -0.068806      0.224292 
 H256  H    -0.141557      0.234208     -0.405081 
 H257  H    -0.364147      0.268995      0.409726 
 H258  H    -0.379487      0.113437      0.383371 
 H259  H    -0.337605      0.187106      0.316666 
 H260  H    -0.165078      0.316365     -0.313798 
 H261  H    -0.122522      0.386332     -0.382696 
 H262  H    -0.254207      0.069718      0.264184 
 H263  H    -0.278492     -0.003740      0.334744 
 H264  H    -0.213914     -0.489830     -0.333249 
 H265  H    -0.240162      0.439622     -0.261355 
 H266  H    -0.088458      0.430945     -0.225761 
 H267  H    -0.054975      0.491916     -0.300740 
 H268  H    -0.437138      0.004325      0.298492 
 H269  H    -0.404427      0.066765      0.223958 
 H270  H    -0.420026     -0.094051      0.198248 
 H271  H    -0.312044     -0.058554      0.184300 
 H272  H    -0.340682     -0.120598      0.261097 
 H273  H    -0.061185     -0.410704     -0.198215 
 H274  H    -0.140167     -0.376941     -0.259488 
 H275  H    -0.171016     -0.438314     -0.182947 
 N276  N     0.007933     -0.015480     -0.182447 
 C277  C     0.008189     -0.105514     -0.209065 
 C278  C    -0.069444      0.029911     -0.209508 
 C279  C     0.084877      0.031035     -0.210902 
 C280  C    -0.070635      0.031067     -0.291157 
 H281  H    -0.127332     -0.003201     -0.187549 
 H282  H    -0.069798      0.097589     -0.190882 
 C283  C     0.008361     -0.103214     -0.290804 
 H284  H     0.065144     -0.140664     -0.188797 
 H285  H    -0.048816     -0.141213     -0.188215 
 C286  C     0.083479      0.034895     -0.292572 
 H287  H     0.087066      0.097787     -0.190467 
 H288  H     0.142821     -0.003207     -0.191684 
 H289  H     0.065657     -0.136500     -0.311278 
 H290  H    -0.048051     -0.138707     -0.310390 
 H291  H    -0.128203     -0.003178     -0.310116 
 H292  H    -0.073542      0.099133     -0.312134 
 H293  H     0.142240      0.005717     -0.314414 
 N294  N     0.007105     -0.011702     -0.318944 
 H295  H     0.081980      0.103684     -0.311917 
 C296  C     0.289110      0.296426      0.442254 
 C297  C     0.306577      0.332776     -0.493142 
 C298  C     0.256295      0.309031     -0.434063 
 C299  C     0.192755      0.244225     -0.439532 
 C300  C     0.178022      0.204861      0.496318 
 C301  C     0.225777      0.231535      0.436589 
 O302  O     0.270330      0.347022     -0.371327 
 C303  C     0.195717      0.375833     -0.333604 
 C304  C     0.220632      0.458600     -0.295922 
 C305  C     0.143702     -0.487005     -0.271162 
 C306  C     0.170553     -0.400419     -0.238696 
 O307  O     0.210827      0.194716      0.373493 
 C308  C     0.282077      0.190144      0.325422 
 C309  C     0.272991      0.105700      0.286284 
 C310  C     0.358010      0.075015      0.254031 
 C311  C     0.355923     -0.021992      0.235966 
 H312  H     0.156727      0.223821     -0.392578 
 H313  H     0.325284      0.318028      0.395683 
 H314  H     0.281505      0.247975      0.289466 
 H315  H     0.343406      0.189882      0.354011 
 H316  H     0.142561      0.388886     -0.370204 
 H317  H     0.174772      0.323457     -0.296250 
 H318  H     0.248037      0.054157      0.322617 
 H319  H     0.224591      0.113748      0.244886 
 H320  H     0.261375      0.441031     -0.250819 
 H321  H     0.260693     -0.499942     -0.331472 
 H322  H     0.101465     -0.472245     -0.315827 
 H323  H     0.104569      0.473660     -0.233533 
 H324  H     0.372533      0.116000      0.207031 
 H325  H     0.411193      0.085944      0.290418 
 H326  H     0.416689     -0.041817      0.211331 
 H327  H     0.346689     -0.064046      0.283060 
 H328  H     0.302805     -0.035638      0.200258 
 H329  H     0.114045     -0.363809     -0.220838 
 H330  H     0.212749     -0.411342     -0.193434 
 H331  H     0.205538     -0.357969     -0.276873 
 C332  C     0.299860     -0.265469     -0.437711 
 C333  C     0.326682     -0.296155      0.497359 
 C334  C     0.289890     -0.262682      0.434972 
 C335  C     0.222230     -0.202222      0.439341 
 C336  C     0.194397     -0.172740     -0.495745 
 C337  C     0.234695     -0.202655     -0.434077 
 O338  O     0.321377     -0.290771      0.372076 
 C339  C     0.287055     -0.260261      0.305969 
 C340  C     0.219377     -0.323815      0.279573 
 C341  C     0.143939     -0.343136      0.330355 
 C342  C     0.081018     -0.413004      0.305628 
 O343  O     0.208682     -0.173306     -0.370560 
 C344  C     0.273173     -0.134645     -0.327673 
 C345  C     0.314381     -0.056362     -0.366941 
 C346  C     0.367048      0.003934     -0.320856 
 C347  C     0.408678      0.081509     -0.361478 
 H348  H     0.191039     -0.177116      0.392006 
 H349  H     0.327407     -0.291497     -0.389124 
 H350  H     0.240579     -0.113850     -0.279651 
 H351  H     0.321335     -0.184002     -0.311873 
 H352  H     0.261786     -0.193240      0.308579 
 H353  H     0.341732     -0.256427      0.268922 
 H354  H     0.356765     -0.080702     -0.408424 
 H355  H     0.263980     -0.017195     -0.393318 
 H356  H     0.193979     -0.297100      0.229769 
 H357  H     0.251005     -0.385992      0.267246 
 H358  H     0.169650     -0.365302      0.381133 
 H359  H     0.108850     -0.282089      0.339766 
 H360  H     0.324610      0.029426     -0.279992 
 H361  H     0.417346     -0.034781     -0.294167 
 H362  H     0.443582      0.124542     -0.326346 
 H363  H     0.455003      0.059034     -0.400694 
 H364  H     0.360083      0.121659     -0.388888 
 H365  H     0.030851     -0.427066      0.345323 
 H366  H     0.048616     -0.391706      0.257241 
 H367  H     0.114419     -0.474965      0.296248 
 N368  N    -0.498256      0.485585     -0.176693 
 C369  C     0.466224      0.403017     -0.203205 
 C370  C     0.448890     -0.440912     -0.204442 
 C371  C    -0.409595      0.496272     -0.204767 
 C372  C     0.452455     -0.436180     -0.286063 
 H373  H     0.381925     -0.450433     -0.185902 
 H374  H     0.471900     -0.379008     -0.182819 
 C375  C     0.463602      0.406777     -0.284936 
 H376  H    -0.493625      0.347987     -0.184029 
 H377  H     0.401059      0.391875     -0.181236 
 C378  C    -0.409184      0.494577     -0.286339 
 H379  H    -0.382967     -0.441031     -0.187592 
 H380  H    -0.368371      0.444084     -0.182255 
 H381  H     0.498034      0.350694     -0.306925 
 H382  H     0.396696      0.402548     -0.302931 
 H383  H     0.387021     -0.436663     -0.307863 
 H384  H     0.483006     -0.374418     -0.304821 
 H385  H    -0.373614      0.437108     -0.304404 
 N386  N    -0.497855      0.489488     -0.313249 
 H387  H    -0.376366     -0.446888     -0.309004 
 C388  C    -0.234240     -0.325963     -0.459269 
 C389  C    -0.311904     -0.305093     -0.492205 
 C390  C    -0.326656     -0.221371      0.478072 
 C391  C    -0.260083     -0.158929      0.477967 
 C392  C    -0.181686     -0.180654     -0.490651 
 C393  C    -0.167495     -0.263878     -0.460018 
 O394  O    -0.406499     -0.203489      0.451422 
 C395  C    -0.431117     -0.113222      0.444465 
 C396  C     0.471288     -0.107866      0.440861 
 C397  C     0.438145     -0.013100      0.439725 
 C398  C     0.339736     -0.006722      0.441766 
 O399  O    -0.087617     -0.282249     -0.433824 
 C400  C    -0.058234     -0.370883     -0.438195 
 C401  C     0.038490     -0.369874     -0.451183 
 C402  C     0.073470     -0.460458     -0.469473 
 C403  C     0.171631     -0.462469     -0.477782 
 H404  H    -0.268455     -0.093958      0.453364 
 H405  H    -0.225086     -0.390908     -0.434912 
 H406  H    -0.074586     -0.405963     -0.388745 
 H407  H    -0.090822     -0.404552     -0.480735 
 H408  H    -0.407674     -0.076932      0.489514 
 H409  H    -0.400988     -0.084686      0.396681 
 H410  H     0.054012     -0.322840     -0.494420 
 H411  H     0.071701     -0.345590     -0.404884 
 H412  H     0.448387     -0.141371      0.394284 
 H413  H     0.443109     -0.143984      0.486342 
 H414  H     0.464732      0.021202      0.484507 
 H415  H     0.463042      0.022066      0.392713 
 H416  H     0.053116      0.490893     -0.428951 
 H417  H     0.043830     -0.481264      0.481607 
 H418  H     0.194025      0.471932     -0.491108 
 H419  H     0.193899     -0.416884      0.480465 
 H420  H     0.204104     -0.443891     -0.429677 
 H421  H     0.318451      0.061848      0.440840 
 H422  H     0.310511     -0.039124      0.397350 
 H423  H     0.312775     -0.038151      0.489385 
loop_  
_geom_bond_atom_site_label_1  
_geom_bond_atom_site_label_2  
Cu0   Cu1 
Cu0   O4 
Cu0   O7 
Cu0   O10 
Cu0   O13 
Cu0   N82 
Cu1   O2 
Cu1   O5 
Cu1   O8 
Cu1   O11 
Cu1   N276 
O2   C3 
C3   O4 
C3   C29 
O5   C6 
C6   O7 
C6   C85 
O8   C9 
C9   O10 
C9   C180 
O11   C12 
C12   O13 
C12   C121 
Cu14   Cu15 
Cu14   O18 
Cu14   O21 
Cu14   O24 
Cu14   O27 
Cu14   N174 
Cu15   O16 
Cu15   O19 
Cu15   O22 
Cu15   O25 
Cu15   N368 
O16   C17 
C17   O18 
C17   C124 
O19   C20 
C20   O21 
C20   C177 
O22   C23 
C23   O24 
C23   C88 
O25   C26 
C26   O27 
C26   C32 
C28   C29 
C28   C33 
C28   H45 
C29   C30 
C30   C31 
C30   O34 
C31   C32 
C31   H44 
C32   C33 
C33   O39 
O34   C35 
C35   C36 
C35   H48 
C35   H49 
C36   C37 
C36   H52 
C36   H53 
C37   C38 
C37   H54 
C37   H55 
C38   H61 
C38   H62 
C38   H63 
O39   C40 
C40   C41 
C40   H46 
C40   H47 
C41   C42 
C41   H50 
C41   H51 
C42   C43 
C42   H56 
C42   H57 
C43   H58 
C43   H59 
C43   H60 
N64   C65 
N64   C66 
N64   C67 
N64   Cu213 
C65   C71 
C65   H72 
C65   H73 
C66   C68 
C66   H69 
C66   H70 
C67   C74 
C67   H75 
C67   H76 
C68   H79 
C68   H80 
C68   N82 
C71   H77 
C71   H78 
C71   N82 
C74   H81 
C74   N82 
C74   H83 
C84   C85 
C84   C89 
C84   H101 
C85   C86 
C86   C87 
C86   O90 
C87   C88 
C87   H100 
C88   C89 
C89   O95 
O90   C91 
C91   C92 
C91   H104 
C91   H105 
C92   C93 
C92   H108 
C92   H109 
C93   C94 
C93   H110 
C93   H111 
C94   H117 
C94   H118 
C94   H119 
O95   C96 
C96   C97 
C96   H102 
C96   H103 
C97   C98 
C97   H106 
C97   H107 
C98   C99 
C98   H112 
C98   H113 
C99   H114 
C99   H115 
C99   H116 
C120   C121 
C120   C125 
C120   H137 
C121   C122 
C122   C123 
C122   O126 
C123   C124 
C123   H136 
C124   C125 
C125   O131 
O126   C127 
C127   C128 
C127   H140 
C127   H141 
C128   C129 
C128   H144 
C128   H145 
C129   C130 
C129   H146 
C129   H147 
C130   H153 
C130   H154 
C130   H155 
O131   C132 
C132   C133 
C132   H138 
C132   H139 
C133   C134 
C133   H142 
C133   H143 
C134   C135 
C134   H148 
C134   H149 
C135   H150 
C135   H151 
C135   H152 
N156   C157 
N156   C158 
N156   C159 
N156   Cu227 
C157   C163 
C157   H164 
C157   H165 
C158   C160 
C158   H161 
C158   H162 
C159   C166 
C159   H167 
C159   H168 
C160   H171 
C160   H172 
C160   N174 
C163   H169 
C163   H170 
C163   N174 
C166   H173 
C166   N174 
C166   H175 
C176   C177 
C176   C181 
C176   H193 
C177   C178 
C178   C179 
C178   O182 
C179   C180 
C179   H192 
C180   C181 
C181   O187 
O182   C183 
C183   C184 
C183   H196 
C183   H197 
C184   C185 
C184   H200 
C184   H201 
C185   C186 
C185   H202 
C185   H203 
C186   H209 
C186   H210 
C186   H211 
O187   C188 
C188   C189 
C188   H194 
C188   H195 
C189   C190 
C189   H198 
C189   H199 
C190   C191 
C190   H204 
C190   H205 
C191   H206 
C191   H207 
C191   H208 
Cu212   Cu213 
Cu212   O216 
Cu212   O219 
Cu212   O222 
Cu212   O225 
Cu212   N294 
Cu213   O214 
Cu213   O217 
Cu213   O220 
Cu213   O223 
O214   C215 
C215   O216 
C215   C244 
O217   C218 
C218   O219 
C218   C300 
O220   C221 
C221   O222 
C221   C392 
O223   C224 
C224   O225 
C224   C336 
Cu226   Cu227 
Cu226   O230 
Cu226   O233 
Cu226   O236 
Cu226   O239 
Cu226   N386 
Cu227   O228 
Cu227   O231 
Cu227   O234 
Cu227   O237 
O228   C229 
C229   O230 
C229   C333 
O231   C232 
C232   O233 
C232   C389 
O234   C235 
C235   O236 
C235   C297 
O237   C238 
C238   O239 
C238   C241 
C240   C241 
C240   C245 
C240   H257 
C241   C242 
C242   C243 
C242   O246 
C243   C244 
C243   H256 
C244   C245 
C245   O251 
O246   C247 
C247   C248 
C247   H260 
C247   H261 
C248   C249 
C248   H264 
C248   H265 
C249   C250 
C249   H266 
C249   H267 
C250   H273 
C250   H274 
C250   H275 
O251   C252 
C252   C253 
C252   H258 
C252   H259 
C253   C254 
C253   H262 
C253   H263 
C254   C255 
C254   H268 
C254   H269 
C255   H270 
C255   H271 
C255   H272 
N276   C277 
N276   C278 
N276   C279 
C277   C283 
C277   H284 
C277   H285 
C278   C280 
C278   H281 
C278   H282 
C279   C286 
C279   H287 
C279   H288 
C280   H291 
C280   H292 
C280   N294 
C283   H289 
C283   H290 
C283   N294 
C286   H293 
C286   N294 
C286   H295 
C296   C297 
C296   C301 
C296   H313 
C297   C298 
C298   C299 
C298   O302 
C299   C300 
C299   H312 
C300   C301 
C301   O307 
O302   C303 
C303   C304 
C303   H316 
C303   H317 
C304   C305 
C304   H320 
C304   H321 
C305   C306 
C305   H322 
C305   H323 
C306   H329 
C306   H330 
C306   H331 
O307   C308 
C308   C309 
C308   H314 
C308   H315 
C309   C310 
C309   H318 
C309   H319 
C310   C311 
C310   H324 
C310   H325 
C311   H326 
C311   H327 
C311   H328 
C332   C333 
C332   C337 
C332   H349 
C333   C334 
C334   C335 
C334   O338 
C335   C336 
C335   H348 
C336   C337 
C337   O343 
O338   C339 
C339   C340 
C339   H352 
C339   H353 
C340   C341 
C340   H356 
C340   H357 
C341   C342 
C341   H358 
C341   H359 
C342   H365 
C342   H366 
C342   H367 
O343   C344 
C344   C345 
C344   H350 
C344   H351 
C345   C346 
C345   H354 
C345   H355 
C346   C347 
C346   H360 
C346   H361 
C347   H362 
C347   H363 
C347   H364 
N368   C369 
N368   C370 
N368   C371 
C369   C375 
C369   H376 
C369   H377 
C370   C372 
C370   H373 
C370   H374 
C371   C378 
C371   H379 
C371   H380 
C372   H383 
C372   H384 
C372   N386 
C375   H381 
C375   H382 
C375   N386 
C378   H385 
C378   N386 
C378   H387 
C388   C389 
C388   C393 
C388   H405 
C389   C390 
C390   C391 
C390   O394 
C391   C392 
C391   H404 
C392   C393 
C393   O399 
O394   C395 
C395   C396 
C395   H408 
C395   H409 
C396   C397 
C396   H412 
C396   H413 
C397   C398 
C397   H414 
C397   H415 
C398   H421 
C398   H422 
C398   H423 
O399   C400 
C400   C401 
C400   H406 
C400   H407 
C401   C402 
C401   H410 
C401   H411 
C402   C403 
C402   H416 
C402   H417 
C403   H418 
C403   H419 
C403   H420 
  
#END  
