data_
_symmetry_cell_setting           triclinic 
_symmetry_space_group_name_H-M   'P 1' 
_symmetry_Int_Tables_number      1 
loop_ 
_symmetry_equiv_pos_site_id 
_symmetry_equiv_pos_as_xyz 
1 x,y,z 
_cell_length_a             14.430710        
_cell_length_b             16.280566        
_cell_length_c             19.190568        
_cell_angle_alpha          91.741542        
_cell_angle_beta           86.914493        
_cell_angle_gamma          89.928675        
loop_  
_atom_site_label   
_atom_site_type_symbol  
_atom_site_fract_x  
_atom_site_fract_y  
_atom_site_fract_z 
 Cu0  Cu    -0.000296     -0.000884      0.068243 
 Cu1  Cu     0.001952     -0.006975     -0.067845 
 O2  O    -0.110072      0.063980     -0.057675 
 C3  C    -0.131644      0.100891      0.000338 
 O4  O    -0.095252      0.086795      0.057969 
 O5  O     0.081827      0.092666     -0.059322 
 C6  C     0.119441      0.111995     -0.002581 
 O7  O     0.100202      0.080613      0.056398 
 O8  O    -0.079812     -0.104025     -0.054111 
 C9  C    -0.115718     -0.122166      0.005690 
 O10  O    -0.098102     -0.086435      0.063379 
 O11  O     0.113310     -0.079241     -0.060203 
 C12  C     0.129529     -0.112060     -0.002615 
 O13  O     0.093456     -0.089858      0.057050 
 Cu14  Cu     0.495001      0.498011      0.069388 
 Cu15  Cu    -0.496434      0.493452     -0.066699 
 O16  O     0.413526     -0.414072     -0.056711 
 C17  C     0.374081     -0.393572      0.002284 
 O18  O     0.386852     -0.428108      0.059659 
 O19  O    -0.395283     -0.425160     -0.059993 
 C20  C    -0.381730     -0.388035     -0.002093 
 O21  O    -0.420835     -0.405596      0.056774 
 O22  O     0.398893      0.415839     -0.056666 
 C23  C     0.378812      0.381460      0.000884 
 O24  O     0.413067      0.399891      0.059196 
 O25  O    -0.408058      0.400587     -0.054092 
 C26  C    -0.376346      0.384253      0.004792 
 O27  O    -0.395281      0.424648      0.061611 
 C28  C    -0.313013      0.255830     -0.051912 
 C29  C    -0.315242      0.309308      0.006631 
 C30  C    -0.262613      0.291825      0.064003 
 C31  C    -0.207073      0.220961      0.061247 
 C32  C    -0.202386      0.169033      0.001739 
 C33  C    -0.258111      0.184361     -0.054473 
 O34  O    -0.265587      0.344616      0.120997 
 C35  C    -0.204667      0.331182      0.176320 
 C36  C    -0.208004      0.407029      0.224568 
 C37  C    -0.185316      0.487136      0.186922 
 C38  C    -0.086327      0.489660      0.153928 
 O39  O    -0.257566      0.129186     -0.110090 
 C40  C    -0.318137      0.141369     -0.166036 
 C41  C    -0.417767      0.117686     -0.144545 
 C42  C    -0.490512      0.151827     -0.191821 
 C43  C    -0.473393      0.128423     -0.269476 
 H44  H    -0.164920      0.207237      0.105017 
 H45  H    -0.355762      0.269772     -0.095324 
 H46  H    -0.312948      0.205102     -0.183420 
 H47  H    -0.292036      0.101956     -0.210481 
 H48  H    -0.227758      0.276383      0.204745 
 H49  H    -0.133195      0.320321      0.154857 
 H50  H    -0.423052      0.050198     -0.143933 
 H51  H    -0.435621      0.139369     -0.090559 
 H52  H    -0.277165      0.412216      0.251366 
 H53  H    -0.159082      0.399051      0.265981 
 H54  H    -0.234677      0.495983      0.145943 
 H55  H    -0.196331     -0.460945      0.224476 
 H56  H     0.440402      0.130015     -0.173582 
 H57  H    -0.493122      0.219222     -0.185118 
 H58  H    -0.407667      0.153724     -0.290896 
 H59  H    -0.470747      0.061418     -0.277935 
 H60  H     0.471020      0.152130     -0.300386 
 H61  H    -0.074570      0.440966      0.113472 
 H62  H    -0.071858     -0.451598      0.128909 
 H63  H    -0.035377      0.481566      0.193613 
 N64  N     0.016822      0.017114      0.317357 
 C65  C    -0.039085     -0.052124      0.291445 
 C66  C    -0.022117      0.094387      0.292266 
 C67  C     0.112172      0.007419      0.286032 
 C68  C    -0.020465      0.093410      0.210631 
 H69  H    -0.093917      0.101771      0.314216 
 H70  H     0.017700      0.146792      0.312703 
 C71  C    -0.041130     -0.052658      0.210196 
 H72  H    -0.009318     -0.110037      0.308713 
 H73  H    -0.110083     -0.047288      0.315321 
 C74  C     0.111857      0.004345      0.204417 
 H75  H     0.154997      0.058761      0.304711 
 H76  H     0.142516     -0.049307      0.304983 
 H77  H    -0.015278     -0.111822      0.187343 
 H78  H    -0.113014     -0.045253      0.194493 
 H79  H    -0.090817      0.103153      0.192691 
 H80  H     0.022943      0.143645      0.189680 
 H81  H     0.140537     -0.054549      0.183037 
 N82  N     0.016450      0.014279      0.180995 
 H83  H     0.156198      0.053153      0.182198 
 C84  C     0.323118      0.246991      0.043537 
 C85  C     0.309821      0.312841     -0.000160 
 C86  C     0.237096      0.311622     -0.046202 
 C87  C     0.180272      0.242286     -0.050405 
 C88  C     0.192474      0.177244     -0.005685 
 C89  C     0.266659      0.177441      0.038971 
 O90  O     0.219621      0.374201     -0.089709 
 C91  C     0.188192      0.450772     -0.057067 
 C92  C     0.085790      0.445459     -0.033179 
 C93  C     0.020363      0.426743     -0.092307 
 C94  C    -0.082042      0.421411     -0.066774 
 O95  O     0.284918      0.113996      0.081412 
 C96  C     0.307153      0.035498      0.047960 
 C97  C     0.409926      0.031292      0.024859 
 C98  C     0.475850      0.042445      0.084797 
 C99  C    -0.421255      0.033518      0.061135 
 H100  H     0.123397      0.242562     -0.085665 
 H101  H     0.380145      0.246761      0.078678 
 H102  H     0.289054     -0.012317      0.085700 
 H103  H     0.264548      0.024143      0.002752 
 H104  H     0.230318      0.467271     -0.012567 
 H105  H     0.199610      0.499000     -0.095578 
 H106  H     0.424073     -0.028548     -0.001946 
 H107  H     0.425360      0.078176     -0.014301 
 H108  H     0.076840      0.398107      0.006444 
 H109  H     0.064727     -0.495958     -0.006669 
 H110  H     0.028607      0.474472     -0.131549 
 H111  H     0.041190      0.368445     -0.119294 
 H112  H     0.464292      0.103537      0.109982 
 H113  H     0.458320     -0.002605      0.125046 
 H114  H    -0.400479      0.079653      0.022730 
 H115  H    -0.376504      0.041728      0.105391 
 H116  H    -0.406092     -0.027493      0.037045 
 H117  H    -0.126667      0.407809     -0.110306 
 H118  H    -0.093092      0.372537     -0.028917 
 H119  H    -0.106633      0.479412     -0.041298 
 C120  C     0.324102     -0.265497     -0.051051 
 C121  C     0.309747     -0.321040      0.002708 
 C122  C     0.237573     -0.309086      0.054039 
 C123  C     0.179535     -0.240255      0.050769 
 C124  C     0.193881     -0.184618     -0.003117 
 C125  C     0.266771     -0.196184     -0.054031 
 O126  O     0.227213     -0.365779      0.105205 
 C127  C     0.146046     -0.364483      0.151679 
 C128  C     0.150225     -0.438308      0.198457 
 C129  C     0.161380      0.478679      0.158091 
 C130  C     0.159165      0.403984      0.205070 
 O131  O     0.280169     -0.139607     -0.105094 
 C132  C     0.368730     -0.137761     -0.142921 
 C133  C     0.371890     -0.064947     -0.190793 
 C134  C     0.308288     -0.074435     -0.252178 
 C135  C     0.312702     -0.001073     -0.300376 
 H136  H     0.122866     -0.230176      0.090147 
 H137  H     0.380786     -0.276147     -0.090325 
 H138  H     0.423851     -0.132777     -0.105413 
 H139  H     0.379311     -0.195303     -0.174074 
 H140  H     0.144238     -0.306840      0.183370 
 H141  H     0.083618     -0.366937      0.121012 
 H142  H     0.353113     -0.008506     -0.160045 
 H143  H     0.443805     -0.056419     -0.211459 
 H144  H     0.208098     -0.430159      0.233109 
 H145  H     0.086935     -0.439309      0.233131 
 H146  H     0.106397      0.472424      0.120782 
 H147  H     0.227068      0.478308      0.126027 
 H148  H     0.327360     -0.130811     -0.282850 
 H149  H     0.236433     -0.083128     -0.231723 
 H150  H     0.267714     -0.010572     -0.344361 
 H151  H     0.290798      0.056135     -0.272287 
 H152  H     0.383640      0.008116     -0.322349 
 H153  H     0.214541      0.406837      0.242178 
 H154  H     0.092692      0.399732      0.235464 
 H155  H     0.168621      0.346591      0.173753 
 N156  N     0.493317     -0.498552      0.319996 
 C157  C    -0.489461      0.417541      0.290429 
 C158  C     0.402270     -0.470985      0.297219 
 C159  C    -0.434713     -0.443304      0.289917 
 C160  C     0.399807     -0.476836      0.215772 
 H161  H     0.346736      0.491698      0.322100 
 H162  H     0.390245     -0.407063      0.316172 
 C163  C    -0.485302      0.417113      0.208939 
 H164  H    -0.424679      0.392959      0.309615 
 H165  H     0.453966      0.377586      0.309849 
 C166  C    -0.439565     -0.441151      0.208789 
 H167  H    -0.444167     -0.381047      0.313578 
 H168  H    -0.366028     -0.465132      0.304122 
 H169  H    -0.415280      0.399836      0.187964 
 H170  H     0.466726      0.371008      0.188019 
 H171  H     0.349013      0.476911      0.199605 
 H172  H     0.378362     -0.417708      0.195097 
 H173  H    -0.371244     -0.454813      0.182728 
 N174  N     0.491517      0.499203      0.183641 
 H175  H    -0.459378     -0.379231      0.192990 
 C176  C    -0.274601     -0.298557      0.061861 
 C177  C    -0.314197     -0.317837     -0.001574 
 C178  C    -0.290342     -0.273406     -0.061590 
 C179  C    -0.225735     -0.209484     -0.056902 
 C180  C    -0.185057     -0.190918      0.006307 
 C181  C    -0.208133     -0.236001      0.066207 
 O182  O    -0.332412     -0.293675     -0.122176 
 C183  C    -0.306446     -0.255061     -0.186683 
 C184  C    -0.362752     -0.176687     -0.193466 
 C185  C    -0.345735     -0.135733     -0.264194 
 C186  C    -0.379285     -0.186649     -0.326602 
 O187  O    -0.165197     -0.219001      0.127197 
 C188  C    -0.174045     -0.277406      0.181899 
 C189  C    -0.107331     -0.255266      0.238212 
 C190  C    -0.103951     -0.318289      0.296089 
 C191  C    -0.035379     -0.295170      0.351777 
 H192  H    -0.207472     -0.173225     -0.102514 
 H193  H    -0.294707     -0.333695      0.107794 
 H194  H    -0.246081     -0.276833      0.204115 
 H195  H    -0.158165     -0.339125      0.159452 
 H196  H    -0.231297     -0.243301     -0.191118 
 H197  H    -0.320867     -0.299758     -0.228820 
 H198  H    -0.037027     -0.248010      0.213911 
 H199  H    -0.127812     -0.195244      0.262111 
 H200  H    -0.437072     -0.191121     -0.185871 
 H201  H    -0.347413     -0.132259     -0.151199 
 H202  H    -0.380635     -0.075445     -0.261947 
 H203  H    -0.271179     -0.122945     -0.272705 
 H204  H    -0.173824     -0.325159      0.321257 
 H205  H    -0.084587     -0.378869      0.272734 
 H206  H    -0.035659     -0.341035      0.392659 
 H207  H     0.035990     -0.290886      0.329116 
 H208  H    -0.053062     -0.235477      0.377388 
 H209  H    -0.365295     -0.154817     -0.375716 
 H210  H    -0.344211     -0.246571     -0.332528 
 H211  H    -0.454383     -0.198033     -0.321257 
 Cu212  Cu    -0.005277      0.005369     -0.432516 
 Cu213  Cu     0.009414      0.005441      0.431401 
 O214  O    -0.084971      0.093215      0.441751 
 C215  C    -0.130484      0.108969      0.499225 
 O216  O    -0.118618      0.074214     -0.443257 
 O217  O     0.105364      0.091180      0.444460 
 C218  C     0.112586      0.127794     -0.496357 
 O219  O     0.071291      0.106624     -0.439432 
 O220  O    -0.092020     -0.078950      0.441757 
 C221  C    -0.112029     -0.115072      0.498561 
 O222  O    -0.080049     -0.095900     -0.442506 
 O223  O     0.105822     -0.080633      0.437744 
 C224  C     0.136515     -0.097685      0.496592 
 O225  O     0.109001     -0.064465     -0.444827 
 Cu226  Cu     0.497927     -0.495708     -0.430134 
 Cu227  Cu    -0.493520     -0.495205      0.433727 
 O228  O     0.411912     -0.406684      0.448598 
 C229  C     0.391948     -0.371940     -0.492038 
 O230  O     0.421456     -0.394384     -0.434159 
 O231  O    -0.397642     -0.409503      0.443744 
 C232  C    -0.363909     -0.392490     -0.497568 
 O233  O    -0.385128     -0.428480     -0.440829 
 O234  O     0.408896      0.420006      0.442740 
 C235  C     0.369197      0.401631     -0.498960 
 O236  O     0.383526      0.436953     -0.440334 
 O237  O    -0.397696      0.417372      0.439997 
 C238  C    -0.386971      0.381946      0.497336 
 O239  O    -0.428694      0.401221     -0.444337 
 C240  C    -0.340113      0.247552     -0.456917 
 C241  C    -0.319811      0.311650      0.497499 
 C242  C    -0.240060      0.308314      0.452153 
 C243  C    -0.182571      0.239096      0.451165 
 C244  C    -0.202250      0.175375      0.497157 
 C245  C    -0.283661      0.177352     -0.459003 
 O246  O    -0.216030      0.368644      0.406522 
 C247  C    -0.189937      0.446917      0.436361 
 C248  C    -0.089155      0.444768      0.456566 
 C249  C    -0.018299      0.427034      0.395151 
 C250  C     0.082173      0.424163      0.417409 
 O251  O    -0.311317      0.115253     -0.415959 
 C252  C    -0.312787      0.033118     -0.446154 
 C253  C    -0.411711      0.000149     -0.444655 
 C254  C    -0.481458      0.055373     -0.479147 
 C255  C     0.425335      0.013250     -0.490632 
 H256  H    -0.120166      0.238273      0.416402 
 H257  H    -0.401957      0.249090     -0.421571 
 H258  H    -0.283367      0.031328      0.499656 
 H259  H    -0.268433     -0.005835     -0.415742 
 H260  H    -0.200332      0.493723      0.397237 
 H261  H    -0.235790      0.463613      0.482360 
 H262  H    -0.410364     -0.060886     -0.471136 
 H263  H    -0.436404     -0.009846     -0.390287 
 H264  H    -0.072486     -0.495713      0.481623 
 H265  H    -0.081470      0.398383      0.496525 
 H266  H    -0.035070      0.368040      0.369253 
 H267  H    -0.024690      0.474235      0.355759 
 H268  H    -0.493545      0.111604     -0.446554 
 H269  H    -0.450843      0.075646      0.470553 
 H270  H     0.392159     -0.007145     -0.441349 
 H271  H     0.376552      0.054993      0.486082 
 H272  H     0.434383     -0.041189      0.474445 
 H273  H     0.131009      0.411024      0.372506 
 H274  H     0.102779      0.482886      0.441710 
 H275  H     0.091358      0.375883      0.455287 
 N276  N    -0.005943     -0.003060     -0.181883 
 C277  C    -0.098170      0.019907     -0.205548 
 C278  C     0.062079      0.057278     -0.209670 
 C279  C     0.018245     -0.084937     -0.213276 
 C280  C     0.057502      0.062817     -0.290599 
 H281  H     0.048142      0.117977     -0.184144 
 H282  H     0.131997      0.038505     -0.195693 
 C283  C    -0.099350      0.015012     -0.287050 
 H284  H    -0.151858     -0.019949     -0.181387 
 H285  H    -0.113574      0.083219     -0.186453 
 C286  C     0.026134     -0.081536     -0.294777 
 H287  H     0.083636     -0.106783     -0.193040 
 H288  H    -0.035960     -0.128833     -0.196265 
 H289  H    -0.145108     -0.034885     -0.304416 
 H290  H    -0.126941      0.072385     -0.307051 
 H291  H     0.031128      0.123488     -0.304135 
 H292  H     0.127037      0.056153     -0.316782 
 H293  H    -0.014778     -0.130947     -0.318800 
 N294  N    -0.004928     -0.000660     -0.318358 
 H295  H     0.098783     -0.091122     -0.313946 
 C296  C     0.237952      0.324747     -0.441420 
 C297  C     0.302009      0.331254     -0.498436 
 C298  C     0.303636      0.272467      0.446527 
 C299  C     0.239436      0.208392      0.447700 
 C300  C     0.175907      0.201007     -0.495093 
 C301  C     0.173401      0.260086     -0.439825 
 O302  O     0.365177      0.277478      0.390368 
 C303  C     0.446628      0.226956      0.391451 
 C304  C     0.437650      0.149081      0.345946 
 C305  C     0.427505      0.162597      0.267605 
 C306  C     0.335818      0.202606      0.249412 
 O307  O     0.107990      0.253030     -0.385797 
 C308  C     0.084393      0.324488     -0.342697 
 C309  C    -0.001111      0.306567     -0.295600 
 C310  C    -0.086389      0.279510     -0.335197 
 C311  C    -0.171476      0.261951     -0.286693 
 H312  H     0.240984      0.164343      0.403703 
 H313  H     0.237994      0.370359     -0.398527 
 H314  H     0.143311      0.340417     -0.310696 
 H315  H     0.071073      0.376552     -0.376238 
 H316  H    -0.493465      0.263701      0.372944 
 H317  H     0.458609      0.211505      0.445781 
 H318  H     0.016004      0.258839     -0.258876 
 H319  H    -0.019072      0.361908     -0.263181 
 H320  H     0.499873      0.111232      0.351572 
 H321  H     0.379057      0.111938      0.366136 
 H322  H     0.486090      0.199754      0.247252 
 H323  H     0.434239      0.102591      0.239740 
 H324  H    -0.103879      0.327160     -0.371864 
 H325  H    -0.069082      0.224034     -0.367656 
 H326  H    -0.230564      0.241950     -0.316766 
 H327  H    -0.156668      0.213157     -0.250570 
 H328  H    -0.193342      0.316722     -0.255160 
 H329  H     0.328377      0.265585      0.271126 
 H330  H     0.331618      0.206295      0.192651 
 H331  H     0.275699      0.167072      0.268909 
 C332  C     0.221947     -0.198920     -0.436447 
 C333  C     0.208619     -0.164187      0.498843 
 C334  C     0.259399     -0.194025      0.438757 
 C335  C     0.318490     -0.261658      0.443261 
 C336  C     0.329438     -0.298094     -0.492434 
 C337  C     0.280691     -0.266932     -0.431991 
 O338  O     0.251924     -0.161736      0.374413 
 C339  C     0.327457     -0.109523      0.352358 
 C340  C     0.345482     -0.116464      0.273363 
 C341  C     0.374150     -0.203015      0.245727 
 C342  C     0.398554     -0.206928      0.166878 
 O343  O     0.290152     -0.300220     -0.368223 
 C344  C     0.207893     -0.336550     -0.337044 
 C345  C     0.200434     -0.313799     -0.259356 
 C346  C     0.113260     -0.348784     -0.221447 
 C347  C     0.103694     -0.323864     -0.143665 
 H348  H     0.355093     -0.284926      0.395493 
 H349  H     0.185278     -0.175654     -0.388760 
 H350  H     0.145576     -0.316497     -0.362737 
 H351  H     0.213844     -0.403596     -0.345800 
 H352  H     0.308382     -0.046045      0.368969 
 H353  H     0.390633     -0.125634      0.378797 
 H354  H     0.262636     -0.335525     -0.234477 
 H355  H     0.200008     -0.246369     -0.252355 
 H356  H     0.283249     -0.097087      0.247389 
 H357  H     0.400417     -0.072626      0.257969 
 H358  H     0.434009     -0.224265      0.273619 
 H359  H     0.317353     -0.246326      0.257809 
 H360  H     0.051248     -0.328119     -0.247086 
 H361  H     0.114314     -0.416309     -0.227133 
 H362  H     0.099654     -0.256721     -0.135880 
 H363  H     0.040584     -0.349829     -0.118426 
 H364  H     0.163088     -0.345538     -0.115676 
 H365  H     0.457817     -0.167198      0.152963 
 H366  H     0.416999     -0.269781      0.148509 
 H367  H     0.339790     -0.187111      0.137270 
 N368  N     0.495838      0.494348     -0.180148 
 C369  C    -0.443207      0.429137     -0.212560 
 C370  C     0.400915      0.481246     -0.204072 
 C371  C    -0.470255     -0.425855     -0.205970 
 C372  C     0.401002      0.480299     -0.285594 
 H373  H     0.373584      0.422796     -0.184071 
 H374  H     0.355184     -0.469621     -0.181038 
 C375  C    -0.441844      0.432221     -0.294009 
 H376  H    -0.372581      0.436723     -0.194013 
 H377  H    -0.468471      0.369066     -0.194572 
 C378  C    -0.474555     -0.422799     -0.286986 
 H379  H     0.488799     -0.375391     -0.179910 
 H380  H    -0.398105     -0.417987     -0.191052 
 H381  H    -0.371128      0.444254     -0.315958 
 H382  H    -0.463122      0.372426     -0.316438 
 H383  H     0.378099      0.419935     -0.305780 
 H384  H     0.352081     -0.473708     -0.303364 
 H385  H    -0.406206     -0.406754     -0.311101 
 N386  N     0.495028      0.497176     -0.316239 
 H387  H     0.476581     -0.374699     -0.301195 
 C388  C    -0.305770     -0.263110      0.451926 
 C389  C    -0.296749     -0.321947     -0.497055 
 C390  C    -0.226705     -0.314753     -0.449184 
 C391  C    -0.168318     -0.245832     -0.451305 
 C392  C    -0.177363     -0.186983      0.497611 
 C393  C    -0.245710     -0.195401      0.448378 
 O394  O    -0.217382     -0.375140     -0.401763 
 C395  C    -0.127463     -0.388041     -0.375174 
 C396  C    -0.127218     -0.470643     -0.339831 
 C397  C    -0.187869     -0.473833     -0.271563 
 C398  C    -0.148582     -0.425750     -0.209852 
 O399  O    -0.251936     -0.136831      0.398822 
 C400  C    -0.327357     -0.139892      0.352905 
 C401  C    -0.317400     -0.071007      0.301012 
 C402  C    -0.309934      0.015365      0.334914 
 C403  C    -0.305465      0.084018      0.281826 
 H404  H    -0.115233     -0.238400     -0.413193 
 H405  H    -0.360449     -0.270025      0.415017 
 H406  H    -0.326716     -0.199702      0.324415 
 H407  H    -0.393383     -0.133895      0.384341 
 H408  H    -0.074404     -0.387408     -0.418696 
 H409  H    -0.112053     -0.337661     -0.338020 
 H410  H    -0.255997     -0.082933      0.265553 
 H411  H    -0.377352     -0.072704      0.267785 
 H412  H    -0.151008      0.481714     -0.376767 
 H413  H    -0.055449     -0.487434     -0.329295 
 H414  H    -0.257702     -0.450761     -0.280679 
 H415  H    -0.196913      0.461560     -0.257391 
 H416  H    -0.369633      0.025956      0.372176 
 H417  H    -0.247999      0.018516      0.366044 
 H418  H    -0.299217      0.144601      0.308060 
 H419  H    -0.245629      0.076014      0.244357 
 H420  H    -0.368137      0.085035      0.251747 
 H421  H    -0.080471     -0.449894     -0.197494 
 H422  H    -0.139993     -0.360280     -0.220579 
 H423  H    -0.194756     -0.430187     -0.162597 
loop_  
_geom_bond_atom_site_label_1  
_geom_bond_atom_site_label_2  
Cu0   Cu1 
Cu0   O4 
Cu0   O7 
Cu0   O10 
Cu0   O13 
Cu0   N82 
Cu1   O2 
Cu1   O5 
Cu1   O8 
Cu1   O11 
Cu1   N276 
O2   C3 
C3   O4 
C3   C32 
O5   C6 
C6   O7 
C6   C88 
O8   C9 
C9   O10 
C9   C180 
O11   C12 
C12   O13 
C12   C124 
Cu14   Cu15 
Cu14   O18 
Cu14   O21 
Cu14   O24 
Cu14   O27 
Cu14   N174 
Cu15   O16 
Cu15   O19 
Cu15   O22 
Cu15   O25 
Cu15   N368 
O16   C17 
C17   O18 
C17   C121 
O19   C20 
C20   O21 
C20   C177 
O22   C23 
C23   O24 
C23   C85 
O25   C26 
C26   O27 
C26   C29 
C28   C29 
C28   C33 
C28   H45 
C29   C30 
C30   C31 
C30   O34 
C31   C32 
C31   H44 
C32   C33 
C33   O39 
O34   C35 
C35   C36 
C35   H48 
C35   H49 
C36   C37 
C36   H52 
C36   H53 
C37   C38 
C37   H54 
C37   H55 
C38   H61 
C38   H62 
C38   H63 
O39   C40 
C40   C41 
C40   H46 
C40   H47 
C41   C42 
C41   H50 
C41   H51 
C42   C43 
C42   H56 
C42   H57 
C43   H58 
C43   H59 
C43   H60 
N64   C65 
N64   C66 
N64   C67 
N64   Cu213 
C65   C71 
C65   H72 
C65   H73 
C66   C68 
C66   H69 
C66   H70 
C67   C74 
C67   H75 
C67   H76 
C68   H79 
C68   H80 
C68   N82 
C71   H77 
C71   H78 
C71   N82 
C74   H81 
C74   N82 
C74   H83 
C84   C85 
C84   C89 
C84   H101 
C85   C86 
C86   C87 
C86   O90 
C87   C88 
C87   H100 
C88   C89 
C89   O95 
O90   C91 
C91   C92 
C91   H104 
C91   H105 
C92   C93 
C92   H108 
C92   H109 
C93   C94 
C93   H110 
C93   H111 
C94   H117 
C94   H118 
C94   H119 
O95   C96 
C96   C97 
C96   H102 
C96   H103 
C97   C98 
C97   H106 
C97   H107 
C98   C99 
C98   H112 
C98   H113 
C99   H114 
C99   H115 
C99   H116 
C120   C121 
C120   C125 
C120   H137 
C121   C122 
C122   C123 
C122   O126 
C123   C124 
C123   H136 
C124   C125 
C125   O131 
O126   C127 
C127   C128 
C127   H140 
C127   H141 
C128   C129 
C128   H144 
C128   H145 
C129   C130 
C129   H146 
C129   H147 
C130   H153 
C130   H154 
C130   H155 
O131   C132 
C132   C133 
C132   H138 
C132   H139 
C133   C134 
C133   H142 
C133   H143 
C134   C135 
C134   H148 
C134   H149 
C135   H150 
C135   H151 
C135   H152 
N156   C157 
N156   C158 
N156   C159 
N156   Cu227 
C157   C163 
C157   H164 
C157   H165 
C158   C160 
C158   H161 
C158   H162 
C159   C166 
C159   H167 
C159   H168 
C160   H171 
C160   H172 
C160   N174 
C163   H169 
C163   H170 
C163   N174 
C166   H173 
C166   N174 
C166   H175 
C176   C177 
C176   C181 
C176   H193 
C177   C178 
C178   C179 
C178   O182 
C179   C180 
C179   H192 
C180   C181 
C181   O187 
O182   C183 
C183   C184 
C183   H196 
C183   H197 
C184   C185 
C184   H200 
C184   H201 
C185   C186 
C185   H202 
C185   H203 
C186   H209 
C186   H210 
C186   H211 
O187   C188 
C188   C189 
C188   H194 
C188   H195 
C189   C190 
C189   H198 
C189   H199 
C190   C191 
C190   H204 
C190   H205 
C191   H206 
C191   H207 
C191   H208 
Cu212   Cu213 
Cu212   O216 
Cu212   O219 
Cu212   O222 
Cu212   O225 
Cu212   N294 
Cu213   O214 
Cu213   O217 
Cu213   O220 
Cu213   O223 
O214   C215 
C215   O216 
C215   C244 
O217   C218 
C218   O219 
C218   C300 
O220   C221 
C221   O222 
C221   C392 
O223   C224 
C224   O225 
C224   C333 
Cu226   Cu227 
Cu226   O230 
Cu226   O233 
Cu226   O236 
Cu226   O239 
Cu226   N386 
Cu227   O228 
Cu227   O231 
Cu227   O234 
Cu227   O237 
O228   C229 
C229   O230 
C229   C336 
O231   C232 
C232   O233 
C232   C389 
O234   C235 
C235   O236 
C235   C297 
O237   C238 
C238   O239 
C238   C241 
C240   C241 
C240   C245 
C240   H257 
C241   C242 
C242   C243 
C242   O246 
C243   C244 
C243   H256 
C244   C245 
C245   O251 
O246   C247 
C247   C248 
C247   H260 
C247   H261 
C248   C249 
C248   H264 
C248   H265 
C249   C250 
C249   H266 
C249   H267 
C250   H273 
C250   H274 
C250   H275 
O251   C252 
C252   C253 
C252   H258 
C252   H259 
C253   C254 
C253   H262 
C253   H263 
C254   C255 
C254   H268 
C254   H269 
C255   H270 
C255   H271 
C255   H272 
N276   C277 
N276   C278 
N276   C279 
C277   C283 
C277   H284 
C277   H285 
C278   C280 
C278   H281 
C278   H282 
C279   C286 
C279   H287 
C279   H288 
C280   H291 
C280   H292 
C280   N294 
C283   H289 
C283   H290 
C283   N294 
C286   H293 
C286   N294 
C286   H295 
C296   C297 
C296   C301 
C296   H313 
C297   C298 
C298   C299 
C298   O302 
C299   C300 
C299   H312 
C300   C301 
C301   O307 
O302   C303 
C303   C304 
C303   H316 
C303   H317 
C304   C305 
C304   H320 
C304   H321 
C305   C306 
C305   H322 
C305   H323 
C306   H329 
C306   H330 
C306   H331 
O307   C308 
C308   C309 
C308   H314 
C308   H315 
C309   C310 
C309   H318 
C309   H319 
C310   C311 
C310   H324 
C310   H325 
C311   H326 
C311   H327 
C311   H328 
C332   C333 
C332   C337 
C332   H349 
C333   C334 
C334   C335 
C334   O338 
C335   C336 
C335   H348 
C336   C337 
C337   O343 
O338   C339 
C339   C340 
C339   H352 
C339   H353 
C340   C341 
C340   H356 
C340   H357 
C341   C342 
C341   H358 
C341   H359 
C342   H365 
C342   H366 
C342   H367 
O343   C344 
C344   C345 
C344   H350 
C344   H351 
C345   C346 
C345   H354 
C345   H355 
C346   C347 
C346   H360 
C346   H361 
C347   H362 
C347   H363 
C347   H364 
N368   C369 
N368   C370 
N368   C371 
C369   C375 
C369   H376 
C369   H377 
C370   C372 
C370   H373 
C370   H374 
C371   C378 
C371   H379 
C371   H380 
C372   H383 
C372   H384 
C372   N386 
C375   H381 
C375   H382 
C375   N386 
C378   H385 
C378   N386 
C378   H387 
C388   C389 
C388   C393 
C388   H405 
C389   C390 
C390   C391 
C390   O394 
C391   C392 
C391   H404 
C392   C393 
C393   O399 
O394   C395 
C395   C396 
C395   H408 
C395   H409 
C396   C397 
C396   H412 
C396   H413 
C397   C398 
C397   H414 
C397   H415 
C398   H421 
C398   H422 
C398   H423 
O399   C400 
C400   C401 
C400   H406 
C400   H407 
C401   C402 
C401   H410 
C401   H411 
C402   C403 
C402   H416 
C402   H417 
C403   H418 
C403   H419 
C403   H420 
  
#END  
