data_
_symmetry_cell_setting           triclinic 
_symmetry_space_group_name_H-M   'P 1' 
_symmetry_Int_Tables_number      1 
loop_ 
_symmetry_equiv_pos_site_id 
_symmetry_equiv_pos_as_xyz 
1 x,y,z 
_cell_length_a             15.507854        
_cell_length_b             15.256096        
_cell_length_c             19.014065        
_cell_angle_alpha          91.340506        
_cell_angle_beta           90.139454        
_cell_angle_gamma          90.078744        
loop_  
_atom_site_label   
_atom_site_type_symbol  
_atom_site_fract_x  
_atom_site_fract_y  
_atom_site_fract_z 
 Cu0  Cu     0.006088      0.006364      0.070723 
 Cu1  Cu     0.006114      0.007606     -0.066032 
 O2  O    -0.071510      0.110597     -0.056473 
 C3  C    -0.106857      0.129570      0.002353 
 O4  O    -0.085656      0.096996      0.060940 
 O5  O     0.107125      0.086787     -0.052532 
 C6  C     0.129042      0.118935      0.007485 
 O7  O     0.097612      0.096923      0.066280 
 O8  O    -0.095938     -0.070843     -0.059628 
 C9  C    -0.112744     -0.108203     -0.002067 
 O10  O    -0.080639     -0.087584      0.057675 
 O11  O     0.082888     -0.096022     -0.057833 
 C12  C     0.115853     -0.117546      0.000725 
 O13  O     0.096111     -0.084344      0.060594 
 Cu14  Cu    -0.492171     -0.491795      0.064875 
 Cu15  Cu    -0.497570     -0.490756     -0.071696 
 O16  O     0.412363     -0.400956     -0.056782 
 C17  C     0.395729     -0.367172      0.003504 
 O18  O     0.433932     -0.386016      0.060526 
 O19  O    -0.410614     -0.396882     -0.061646 
 C20  C    -0.372493     -0.379478     -0.003707 
 O21  O    -0.387006     -0.416776      0.054406 
 O22  O     0.411481      0.418602     -0.064780 
 C23  C     0.380126      0.399156     -0.005345 
 O24  O     0.403350      0.432618      0.053891 
 O25  O    -0.405781      0.418572     -0.065681 
 C26  C    -0.385942      0.383022     -0.007924 
 O27  O    -0.420103      0.401723      0.051461 
 C28  C    -0.297314      0.275114      0.056101 
 C29  C    -0.315635      0.315088     -0.007807 
 C30  C    -0.266621      0.293958     -0.067940 
 C31  C    -0.199378      0.233021     -0.063495 
 C32  C    -0.180301      0.193977      0.000711 
 C33  C    -0.230343      0.214047      0.060469 
 O34  O    -0.286551      0.329228     -0.131336 
 C35  C    -0.220125      0.376219     -0.167098 
 C36  C    -0.205450      0.464834     -0.130251 
 C37  C    -0.155382     -0.470276     -0.175351 
 C38  C    -0.154799     -0.376676     -0.144300 
 O39  O    -0.211961      0.178575      0.124013 
 C40  C    -0.278370      0.128121      0.156717 
 C41  C    -0.282657      0.037000      0.122104 
 C42  C    -0.327761     -0.030545      0.167987 
 C43  C    -0.328149     -0.123418      0.135528 
 H44  H    -0.163236      0.215896     -0.110972 
 H45  H    -0.333216      0.292155      0.103733 
 H46  H    -0.261438      0.124257      0.212837 
 H47  H    -0.341243      0.161333      0.153763 
 H48  H    -0.160025      0.337968     -0.170032 
 H49  H    -0.242803      0.384760     -0.221439 
 H50  H    -0.315539      0.040550      0.070813 
 H51  H    -0.217050      0.013401      0.110397 
 H52  H    -0.268027      0.493992     -0.115782 
 H53  H    -0.171119      0.455697     -0.080151 
 H54  H    -0.088762     -0.493612     -0.182448 
 H55  H    -0.184326     -0.469335     -0.228207 
 H56  H    -0.294560     -0.031843      0.219136 
 H57  H    -0.394316     -0.009324      0.178817 
 H58  H    -0.360844     -0.169920      0.169819 
 H59  H    -0.361087     -0.125683      0.084285 
 H60  H    -0.262049     -0.147306      0.127415 
 H61  H    -0.118577     -0.331905     -0.177754 
 H62  H    -0.220709     -0.350868     -0.139653 
 H63  H    -0.125596     -0.373966     -0.091559 
 N64  N    -0.005258     -0.010131      0.320104 
 C65  C     0.084665     -0.005645      0.294459 
 C66  C    -0.045459     -0.090354      0.289679 
 C67  C    -0.052904      0.066588      0.294160 
 C68  C    -0.043060     -0.088950      0.207601 
 H69  H    -0.011063     -0.148043      0.309423 
 H70  H    -0.112525     -0.094912      0.308481 
 C71  C     0.086797     -0.003653      0.212534 
 H72  H     0.116214      0.053096      0.317486 
 H73  H     0.120768     -0.062773      0.313244 
 C74  C    -0.050702      0.067872      0.212254 
 H75  H    -0.120149      0.063746      0.312771 
 H76  H    -0.024353      0.127081      0.316997 
 H77  H     0.118357      0.056641      0.194849 
 H78  H     0.124650     -0.059203      0.191095 
 H79  H    -0.007368     -0.145866      0.185972 
 H80  H    -0.109018     -0.093118      0.185978 
 H81  H    -0.021809      0.129299      0.193946 
 N82  N    -0.001562     -0.007638      0.183351 
 H83  H    -0.116715      0.064782      0.191119 
 C84  C     0.202243      0.236662     -0.055988 
 C85  C     0.195063      0.191021      0.006762 
 C86  C     0.246977      0.213435      0.065267 
 C87  C     0.305002      0.283615      0.059872 
 C88  C     0.312493      0.328817     -0.003072 
 C89  C     0.260388      0.306653     -0.061400 
 O90  O     0.240588      0.166232      0.125711 
 C91  C     0.302728      0.181603      0.180938 
 C92  C     0.286974      0.117219      0.239481 
 C93  C     0.353978      0.122613      0.299107 
 C94  C     0.336243      0.057653      0.357771 
 O95  O     0.267045      0.354104     -0.121653 
 C96  C     0.211063      0.332501     -0.179809 
 C97  C     0.227781      0.395740     -0.238877 
 C98  C     0.170115      0.378977     -0.303639 
 C99  C     0.191533      0.438959     -0.364709 
 H100  H     0.346253      0.302094      0.104382 
 H101  H     0.161022      0.218170     -0.100546 
 H102  H     0.223795      0.264587     -0.197831 
 H103  H     0.143418      0.337063     -0.162568 
 H104  H     0.368153      0.173355      0.159382 
 H105  H     0.296203      0.249417      0.201390 
 H106  H     0.218119      0.463504     -0.219228 
 H107  H     0.295791      0.391094     -0.254854 
 H108  H     0.222768      0.129599      0.261971 
 H109  H     0.285480      0.049897      0.217301 
 H110  H     0.418720      0.110392      0.277336 
 H111  H     0.355270      0.189726      0.321774 
 H112  H     0.176495      0.310155     -0.321615 
 H113  H     0.102059      0.387847     -0.288679 
 H114  H     0.148784      0.426038     -0.409994 
 H115  H     0.184847     -0.491775     -0.348896 
 H116  H     0.258158      0.429161     -0.382838 
 H117  H     0.385023      0.063460      0.399680 
 H118  H     0.272918      0.069519      0.382077 
 H119  H     0.336956     -0.010435      0.337587 
 C120  C     0.237164     -0.188964      0.061474 
 C121  C     0.185699     -0.185497      0.000933 
 C122  C     0.200799     -0.242064     -0.057035 
 C123  C     0.271042     -0.299468     -0.054512 
 C124  C     0.323296     -0.302130      0.005571 
 C125  C     0.307494     -0.246457      0.064041 
 O126  O     0.146630     -0.238096     -0.114042 
 C127  C     0.143822     -0.305954     -0.167877 
 C128  C     0.086021     -0.382093     -0.146635 
 C129  C     0.120152     -0.439332     -0.087089 
 C130  C     0.059216      0.485238     -0.068991 
 O131  O     0.361483     -0.251209      0.121180 
 C132  C     0.362668     -0.185636      0.176912 
 C133  C     0.422414     -0.109508      0.159234 
 C134  C     0.392109     -0.051322      0.098978 
 C135  C     0.455446      0.022530      0.082141 
 H136  H     0.284681     -0.343023     -0.099372 
 H137  H     0.223643     -0.144923      0.106066 
 H138  H     0.297331     -0.162916      0.190323 
 H139  H     0.387188     -0.218649      0.223819 
 H140  H     0.116668     -0.275113     -0.214807 
 H141  H     0.208858     -0.328241     -0.182690 
 H142  H     0.431555     -0.068039      0.206885 
 H143  H     0.486403     -0.136369      0.146128 
 H144  H     0.022966     -0.355141     -0.130923 
 H145  H     0.073890     -0.424323     -0.193406 
 H146  H     0.183681     -0.466235     -0.101637 
 H147  H     0.130483     -0.398450     -0.039406 
 H148  H     0.382464     -0.092069      0.051227 
 H149  H     0.328687     -0.022961      0.111895 
 H150  H     0.429790      0.064107      0.040529 
 H151  H     0.468220      0.064833      0.128545 
 H152  H    -0.482511     -0.003908      0.063695 
 H153  H     0.086934      0.444710     -0.027570 
 H154  H    -0.003188     -0.489925     -0.049897 
 H155  H     0.046646      0.442169     -0.114980 
 N156  N     0.489338     -0.496983      0.315349 
 C157  C    -0.493592      0.414424      0.285198 
 C158  C     0.405577     -0.466974      0.287333 
 C159  C    -0.442807     -0.436567      0.290990 
 C160  C     0.406593     -0.468571      0.205142 
 H161  H     0.353504      0.491191      0.307416 
 H162  H     0.393034     -0.399886      0.307582 
 C163  C    -0.488000      0.417089      0.203226 
 H164  H    -0.433299      0.388669      0.307392 
 H165  H     0.454381      0.369941      0.301518 
 C166  C    -0.442724     -0.432314      0.209056 
 H167  H    -0.453508     -0.370842      0.314723 
 H168  H    -0.379731     -0.459361      0.310188 
 H169  H    -0.422993      0.398057      0.185337 
 H170  H     0.466644      0.369793      0.178585 
 H171  H     0.358601      0.484394      0.183857 
 H172  H     0.388913     -0.403830      0.185143 
 H173  H    -0.378254     -0.448589      0.188256 
 N174  N     0.492851     -0.493786      0.178308 
 H175  H    -0.457833     -0.365414      0.191965 
 C176  C    -0.245971     -0.175730     -0.051260 
 C177  C    -0.176085     -0.182217     -0.005133 
 C178  C    -0.167590     -0.254100      0.039073 
 C179  C    -0.234010     -0.316597      0.041072 
 C180  C    -0.305107     -0.309045     -0.003984 
 C181  C    -0.311753     -0.238262     -0.049717 
 O182  O    -0.093966     -0.259121      0.078700 
 C183  C    -0.064357     -0.343371      0.099965 
 C184  C     0.033182     -0.338480      0.108479 
 C185  C     0.073550     -0.424938      0.132018 
 C186  C     0.172425     -0.422956      0.134023 
 O187  O    -0.379267     -0.228538     -0.095064 
 C188  C    -0.451403     -0.181049     -0.066569 
 C189  C     0.484281     -0.165245     -0.125536 
 C190  C     0.406322     -0.110264     -0.101565 
 C191  C     0.339434     -0.095762     -0.159538 
 H192  H    -0.229394     -0.371465      0.076600 
 H193  H    -0.251873     -0.120909     -0.086693 
 H194  H    -0.480906     -0.219542     -0.024538 
 H195  H    -0.428724     -0.118513     -0.042894 
 H196  H    -0.095743     -0.359332      0.149954 
 H197  H    -0.081855     -0.393992      0.060115 
 H198  H    -0.483097     -0.132314     -0.169063 
 H199  H     0.461573     -0.228966     -0.146844 
 H200  H     0.061847     -0.319727      0.058027 
 H201  H     0.050325     -0.285727      0.146540 
 H202  H     0.048706     -0.440607      0.184434 
 H203  H     0.052210     -0.478582      0.096317 
 H204  H     0.374745     -0.142913     -0.057574 
 H205  H     0.428816     -0.046295     -0.080624 
 H206  H     0.284703     -0.057145     -0.139200 
 H207  H     0.367432     -0.060305     -0.203593 
 H208  H     0.313687     -0.158428     -0.180165 
 H209  H     0.198644     -0.485447      0.152047 
 H210  H     0.199314     -0.411715      0.081562 
 H211  H     0.196641     -0.370554      0.169493 
 Cu212  Cu    -0.005103      0.001627     -0.430576 
 Cu213  Cu    -0.009133     -0.001722      0.432903 
 O214  O    -0.109192      0.079095      0.447112 
 C215  C    -0.125129      0.116574     -0.493678 
 O216  O    -0.087876      0.099825     -0.435785 
 O217  O     0.068005      0.101067      0.438178 
 C218  C     0.108124      0.118991      0.495126 
 O219  O     0.093339      0.084230     -0.445625 
 O220  O    -0.085000     -0.104535      0.443971 
 C221  C    -0.120441     -0.120649     -0.497418 
 O222  O    -0.103928     -0.081425     -0.439042 
 O223  O     0.092608     -0.080541      0.440481 
 C224  C     0.108714     -0.118113      0.498167 
 O225  O     0.074775     -0.098736     -0.442584 
 Cu226  Cu     0.491896     -0.497063     -0.434313 
 Cu227  Cu     0.494791      0.499107      0.429125 
 O228  O     0.412104     -0.402218      0.437564 
 C229  C     0.373285     -0.384952      0.495132 
 O230  O     0.387095     -0.422398     -0.446702 
 O231  O    -0.408131     -0.416015      0.441142 
 C232  C    -0.394160     -0.377804     -0.499660 
 O233  O    -0.435782     -0.391520     -0.443434 
 O234  O     0.398246      0.413052      0.441311 
 C235  C     0.383103      0.376744      0.499926 
 O236  O     0.419907      0.396504     -0.441987 
 O237  O    -0.419871      0.403722      0.438481 
 C238  C    -0.383853      0.389400      0.497379 
 O239  O    -0.403234      0.427177     -0.444176 
 C240  C    -0.304107      0.275097     -0.438314 
 C241  C    -0.314158      0.321172      0.499352 
 C242  C    -0.261872      0.302433      0.440629 
 C243  C    -0.201196      0.234544      0.444260 
 C244  C    -0.191892      0.187756     -0.493763 
 C245  C    -0.243437      0.207078     -0.434714 
 O246  O    -0.271458      0.351807      0.381820 
 C247  C    -0.210733      0.341730      0.325463 
 C248  C    -0.233831      0.408020      0.270098 
 C249  C    -0.173835      0.405195      0.206100 
 C250  C    -0.201294      0.468027      0.148553 
 O251  O    -0.233257      0.157663     -0.375954 
 C252  C    -0.294822      0.165774     -0.320045 
 C253  C    -0.273638      0.096980     -0.266062 
 C254  C    -0.336740      0.096776     -0.204025 
 C255  C    -0.315094      0.028186     -0.149156 
 H256  H    -0.160208      0.218349      0.399168 
 H257  H    -0.345179      0.290905     -0.393236 
 H258  H    -0.290934      0.232141     -0.296069 
 H259  H    -0.360377      0.155687     -0.341333 
 H260  H    -0.144856      0.353137      0.345649 
 H261  H    -0.214606      0.274487      0.303166 
 H262  H    -0.273224      0.031603     -0.291979 
 H263  H    -0.207949      0.108393     -0.245789 
 H264  H    -0.300265      0.395642      0.252137 
 H265  H    -0.233190      0.474516      0.294018 
 H266  H    -0.107601      0.420952      0.223210 
 H267  H    -0.172070      0.337926      0.183931 
 H268  H    -0.337354      0.162241     -0.178401 
 H269  H    -0.402477      0.084975     -0.224103 
 H270  H    -0.361686      0.030328     -0.105666 
 H271  H    -0.316451     -0.038353     -0.172571 
 H272  H    -0.250677      0.039406     -0.126287 
 H273  H    -0.156394      0.465062      0.103915 
 H274  H    -0.265781      0.451757      0.127899 
 H275  H    -0.203302     -0.464037      0.168862 
 N276  N     0.010887      0.003076     -0.180187 
 C277  C     0.094882     -0.025826     -0.209277 
 C278  C    -0.056765     -0.057299     -0.207506 
 C279  C    -0.007062      0.091845     -0.206391 
 C280  C    -0.059501     -0.057471     -0.289517 
 H281  H    -0.043862     -0.123784     -0.188430 
 H282  H    -0.119783     -0.036949     -0.185966 
 C283  C     0.092345     -0.027990     -0.291516 
 H284  H     0.145714      0.019028     -0.189452 
 H285  H     0.110346     -0.091274     -0.189465 
 C286  C    -0.007857      0.091232     -0.288503 
 H287  H    -0.069926      0.114218     -0.185971 
 H288  H     0.041839      0.138063     -0.185302 
 H289  H     0.143129      0.014217     -0.313140 
 H290  H     0.104637     -0.095020     -0.312014 
 H291  H    -0.049183     -0.124299     -0.311285 
 H292  H    -0.123364     -0.035994     -0.308013 
 H293  H     0.042163      0.135482     -0.308710 
 N294  N     0.007325      0.001600     -0.317322 
 H295  H    -0.070236      0.115525     -0.307834 
 C296  C     0.236917      0.186422     -0.449372 
 C297  C     0.180260      0.184755      0.493249 
 C298  C     0.190958      0.243115      0.437719 
 C299  C     0.258643      0.304213      0.441667 
 C300  C     0.314441      0.306991      0.499700 
 C301  C     0.304382      0.247718     -0.445157 
 O302  O     0.135156      0.239279      0.381466 
 C303  C     0.144115      0.301801      0.326612 
 C304  C     0.082415      0.278103      0.266808 
 C305  C     0.089013      0.339867      0.204325 
 C306  C     0.035710      0.309229      0.140281 
 O307  O     0.359488      0.250914     -0.388343 
 C308  C     0.351055      0.186439     -0.334648 
 C309  C     0.408551      0.211413     -0.272413 
 C310  C     0.403883      0.147011     -0.211555 
 C311  C     0.449129      0.181145     -0.144452 
 H312  H     0.267203      0.351361      0.399920 
 H313  H     0.228043      0.139053     -0.407821 
 H314  H     0.283661      0.183567     -0.316714 
 H315  H     0.369007      0.121781     -0.357098 
 H316  H     0.129970      0.367727      0.348471 
 H317  H     0.210876      0.300978      0.306986 
 H318  H     0.475925      0.217779     -0.289877 
 H319  H     0.388871      0.276465     -0.252371 
 H320  H     0.095857      0.210699      0.248116 
 H321  H     0.015670      0.278132      0.286534 
 H322  H     0.068339      0.406034      0.221224 
 H323  H     0.156966      0.345900      0.188444 
 H324  H     0.335928      0.133002     -0.199325 
 H325  H     0.432645      0.084064     -0.228405 
 H326  H     0.445908      0.132921     -0.102479 
 H327  H    -0.482591      0.195968     -0.153723 
 H328  H     0.418993      0.241778     -0.124190 
 H329  H     0.041294      0.355244      0.096916 
 H330  H     0.057668      0.244958      0.120261 
 H331  H    -0.032954      0.302690      0.152999 
 C332  C     0.241245     -0.184414      0.446774 
 C333  C     0.174214     -0.190194      0.495614 
 C334  C     0.170253     -0.260059     -0.457750 
 C335  C     0.237450     -0.321515     -0.457037 
 C336  C     0.305489     -0.314917      0.494998 
 C337  C     0.308392     -0.245422      0.447677 
 O338  O     0.100573     -0.265132     -0.413956 
 C339  C     0.069166     -0.350360     -0.396729 
 C340  C    -0.028447     -0.344948     -0.389986 
 C341  C    -0.070966     -0.433404     -0.374193 
 C342  C    -0.169804     -0.429868     -0.374974 
 O343  O     0.374281     -0.233271      0.401368 
 C344  C     0.450446     -0.195643      0.432732 
 C345  C    -0.491672     -0.159284      0.375911 
 C346  C    -0.411644     -0.112529      0.406470 
 C347  C    -0.351712     -0.075342      0.350692 
 H348  H     0.235747     -0.374722     -0.419703 
 H349  H     0.244659     -0.130660      0.409983 
 H350  H     0.431556     -0.143194      0.470445 
 H351  H     0.484465     -0.246444      0.462222 
 H352  H     0.086941     -0.398899     -0.438043 
 H353  H     0.099080     -0.369735     -0.346884 
 H354  H    -0.471270     -0.213016      0.340023 
 H355  H     0.471472     -0.113121      0.343868 
 H356  H    -0.045688     -0.296437     -0.348545 
 H357  H    -0.055366     -0.319825     -0.439261 
 H358  H    -0.049218     -0.483191     -0.413095 
 H359  H    -0.048519     -0.455662     -0.322611 
 H360  H    -0.432053     -0.059150      0.442679 
 H361  H    -0.375096     -0.158814      0.438414 
 H362  H    -0.295157     -0.043381      0.375210 
 H363  H    -0.327944     -0.127522      0.314940 
 H364  H    -0.385139     -0.026297      0.319215 
 H365  H    -0.198058     -0.493845     -0.362758 
 H366  H    -0.194535     -0.381267     -0.336507 
 H367  H    -0.194141     -0.411927     -0.426983 
 N368  N    -0.496301     -0.483669     -0.184570 
 C369  C    -0.493699      0.425252     -0.212853 
 C370  C     0.424063     -0.441468     -0.210202 
 C371  C    -0.421635     -0.435746     -0.212973 
 C372  C     0.421909     -0.442150     -0.292331 
 H373  H     0.367628     -0.476125     -0.189144 
 H374  H     0.421239     -0.373620     -0.189091 
 C375  C    -0.497141      0.423983     -0.294772 
 H376  H    -0.434334      0.393156     -0.194657 
 H377  H     0.451757      0.388165     -0.191382 
 C378  C    -0.423645     -0.437689     -0.294977 
 H379  H    -0.422848     -0.367553     -0.192459 
 H380  H    -0.361747     -0.465491     -0.193621 
 H381  H    -0.440409      0.389716     -0.316790 
 H382  H     0.445483      0.387921     -0.313719 
 H383  H     0.363922     -0.476455     -0.312368 
 H384  H     0.418952     -0.374677     -0.311840 
 H385  H    -0.365155     -0.469124     -0.316684 
 N386  N     0.499582     -0.485820     -0.321393 
 H387  H    -0.425082     -0.370328     -0.314604 
 C388  C    -0.256259     -0.320777      0.453411 
 C389  C    -0.321897     -0.312538     -0.496409 
 C390  C    -0.320924     -0.243927     -0.445780 
 C391  C    -0.253154     -0.183120     -0.445417 
 C392  C    -0.188474     -0.190418     -0.496497 
 C393  C    -0.188021     -0.260528      0.454288 
 O394  O    -0.386088     -0.237881     -0.397593 
 C395  C    -0.421725     -0.152838     -0.382615 
 C396  C     0.482585     -0.165816     -0.368136 
 C397  C     0.431372     -0.079750     -0.362925 
 C398  C     0.333617     -0.094169     -0.358450 
 O399  O    -0.121260     -0.267967      0.407642 
 C400  C    -0.088113     -0.354158      0.392784 
 C401  C     0.006332     -0.344034      0.372752 
 C402  C     0.053745     -0.431539      0.361014 
 C403  C     0.149468     -0.419624      0.343325 
 H404  H    -0.252190     -0.129764     -0.406132 
 H405  H    -0.257469     -0.373764      0.413823 
 H406  H    -0.094773     -0.395254      0.439413 
 H407  H    -0.125590     -0.384752      0.349434 
 H408  H    -0.388284     -0.123199     -0.336697 
 H409  H    -0.412096     -0.109774     -0.427686 
 H410  H     0.011067     -0.305175      0.324805 
 H411  H     0.039664     -0.305598      0.414482 
 H412  H     0.454522     -0.207927     -0.410178 
 H413  H     0.474594     -0.202164     -0.319170 
 H414  H     0.453717     -0.041265     -0.316668 
 H415  H     0.445568     -0.039848     -0.409039 
 H416  H     0.047998     -0.470951      0.408591 
 H417  H     0.021752     -0.469446      0.318394 
 H418  H     0.181690     -0.483026      0.334653 
 H419  H     0.157791     -0.381400      0.295546 
 H420  H     0.183812     -0.384847      0.386260 
 H421  H     0.298874     -0.031588     -0.353776 
 H422  H     0.309142     -0.128774     -0.405767 
 H423  H     0.316256     -0.133623     -0.312995 
loop_  
_geom_bond_atom_site_label_1  
_geom_bond_atom_site_label_2  
Cu0   Cu1 
Cu0   O4 
Cu0   O7 
Cu0   O10 
Cu0   O13 
Cu0   N82 
Cu1   O2 
Cu1   O5 
Cu1   O8 
Cu1   O11 
Cu1   N276 
O2   C3 
C3   O4 
C3   C32 
O5   C6 
C6   O7 
C6   C85 
O8   C9 
C9   O10 
C9   C177 
O11   C12 
C12   O13 
C12   C121 
Cu14   Cu15 
Cu14   O18 
Cu14   O21 
Cu14   O24 
Cu14   O27 
Cu14   N174 
Cu15   O16 
Cu15   O19 
Cu15   O22 
Cu15   O25 
Cu15   N368 
O16   C17 
C17   O18 
C17   C124 
O19   C20 
C20   O21 
C20   C180 
O22   C23 
C23   O24 
C23   C88 
O25   C26 
C26   O27 
C26   C29 
C28   C29 
C28   C33 
C28   H45 
C29   C30 
C30   C31 
C30   O34 
C31   C32 
C31   H44 
C32   C33 
C33   O39 
O34   C35 
C35   C36 
C35   H48 
C35   H49 
C36   C37 
C36   H52 
C36   H53 
C37   C38 
C37   H54 
C37   H55 
C38   H61 
C38   H62 
C38   H63 
O39   C40 
C40   C41 
C40   H46 
C40   H47 
C41   C42 
C41   H50 
C41   H51 
C42   C43 
C42   H56 
C42   H57 
C43   H58 
C43   H59 
C43   H60 
N64   C65 
N64   C66 
N64   C67 
N64   Cu213 
C65   C71 
C65   H72 
C65   H73 
C66   C68 
C66   H69 
C66   H70 
C67   C74 
C67   H75 
C67   H76 
C68   H79 
C68   H80 
C68   N82 
C71   H77 
C71   H78 
C71   N82 
C74   H81 
C74   N82 
C74   H83 
C84   C85 
C84   C89 
C84   H101 
C85   C86 
C86   C87 
C86   O90 
C87   C88 
C87   H100 
C88   C89 
C89   O95 
O90   C91 
C91   C92 
C91   H104 
C91   H105 
C92   C93 
C92   H108 
C92   H109 
C93   C94 
C93   H110 
C93   H111 
C94   H117 
C94   H118 
C94   H119 
O95   C96 
C96   C97 
C96   H102 
C96   H103 
C97   C98 
C97   H106 
C97   H107 
C98   C99 
C98   H112 
C98   H113 
C99   H114 
C99   H115 
C99   H116 
C120   C121 
C120   C125 
C120   H137 
C121   C122 
C122   C123 
C122   O126 
C123   C124 
C123   H136 
C124   C125 
C125   O131 
O126   C127 
C127   C128 
C127   H140 
C127   H141 
C128   C129 
C128   H144 
C128   H145 
C129   C130 
C129   H146 
C129   H147 
C130   H153 
C130   H154 
C130   H155 
O131   C132 
C132   C133 
C132   H138 
C132   H139 
C133   C134 
C133   H142 
C133   H143 
C134   C135 
C134   H148 
C134   H149 
C135   H150 
C135   H151 
C135   H152 
N156   C157 
N156   C158 
N156   C159 
N156   Cu227 
C157   C163 
C157   H164 
C157   H165 
C158   C160 
C158   H161 
C158   H162 
C159   C166 
C159   H167 
C159   H168 
C160   H171 
C160   H172 
C160   N174 
C163   H169 
C163   H170 
C163   N174 
C166   H173 
C166   N174 
C166   H175 
C176   C177 
C176   C181 
C176   H193 
C177   C178 
C178   C179 
C178   O182 
C179   C180 
C179   H192 
C180   C181 
C181   O187 
O182   C183 
C183   C184 
C183   H196 
C183   H197 
C184   C185 
C184   H200 
C184   H201 
C185   C186 
C185   H202 
C185   H203 
C186   H209 
C186   H210 
C186   H211 
O187   C188 
C188   C189 
C188   H194 
C188   H195 
C189   C190 
C189   H198 
C189   H199 
C190   C191 
C190   H204 
C190   H205 
C191   H206 
C191   H207 
C191   H208 
Cu212   Cu213 
Cu212   O216 
Cu212   O219 
Cu212   O222 
Cu212   O225 
Cu212   N294 
Cu213   O214 
Cu213   O217 
Cu213   O220 
Cu213   O223 
O214   C215 
C215   O216 
C215   C244 
O217   C218 
C218   O219 
C218   C297 
O220   C221 
C221   O222 
C221   C392 
O223   C224 
C224   O225 
C224   C333 
Cu226   Cu227 
Cu226   O230 
Cu226   O233 
Cu226   O236 
Cu226   O239 
Cu226   N386 
Cu227   O228 
Cu227   O231 
Cu227   O234 
Cu227   O237 
O228   C229 
C229   O230 
C229   C336 
O231   C232 
C232   O233 
C232   C389 
O234   C235 
C235   O236 
C235   C300 
O237   C238 
C238   O239 
C238   C241 
C240   C241 
C240   C245 
C240   H257 
C241   C242 
C242   C243 
C242   O246 
C243   C244 
C243   H256 
C244   C245 
C245   O251 
O246   C247 
C247   C248 
C247   H260 
C247   H261 
C248   C249 
C248   H264 
C248   H265 
C249   C250 
C249   H266 
C249   H267 
C250   H273 
C250   H274 
C250   H275 
O251   C252 
C252   C253 
C252   H258 
C252   H259 
C253   C254 
C253   H262 
C253   H263 
C254   C255 
C254   H268 
C254   H269 
C255   H270 
C255   H271 
C255   H272 
N276   C277 
N276   C278 
N276   C279 
C277   C283 
C277   H284 
C277   H285 
C278   C280 
C278   H281 
C278   H282 
C279   C286 
C279   H287 
C279   H288 
C280   H291 
C280   H292 
C280   N294 
C283   H289 
C283   H290 
C283   N294 
C286   H293 
C286   N294 
C286   H295 
C296   C297 
C296   C301 
C296   H313 
C297   C298 
C298   C299 
C298   O302 
C299   C300 
C299   H312 
C300   C301 
C301   O307 
O302   C303 
C303   C304 
C303   H316 
C303   H317 
C304   C305 
C304   H320 
C304   H321 
C305   C306 
C305   H322 
C305   H323 
C306   H329 
C306   H330 
C306   H331 
O307   C308 
C308   C309 
C308   H314 
C308   H315 
C309   C310 
C309   H318 
C309   H319 
C310   C311 
C310   H324 
C310   H325 
C311   H326 
C311   H327 
C311   H328 
C332   C333 
C332   C337 
C332   H349 
C333   C334 
C334   C335 
C334   O338 
C335   C336 
C335   H348 
C336   C337 
C337   O343 
O338   C339 
C339   C340 
C339   H352 
C339   H353 
C340   C341 
C340   H356 
C340   H357 
C341   C342 
C341   H358 
C341   H359 
C342   H365 
C342   H366 
C342   H367 
O343   C344 
C344   C345 
C344   H350 
C344   H351 
C345   C346 
C345   H354 
C345   H355 
C346   C347 
C346   H360 
C346   H361 
C347   H362 
C347   H363 
C347   H364 
N368   C369 
N368   C370 
N368   C371 
C369   C375 
C369   H376 
C369   H377 
C370   C372 
C370   H373 
C370   H374 
C371   C378 
C371   H379 
C371   H380 
C372   H383 
C372   H384 
C372   N386 
C375   H381 
C375   H382 
C375   N386 
C378   H385 
C378   N386 
C378   H387 
C388   C389 
C388   C393 
C388   H405 
C389   C390 
C390   C391 
C390   O394 
C391   C392 
C391   H404 
C392   C393 
C393   O399 
O394   C395 
C395   C396 
C395   H408 
C395   H409 
C396   C397 
C396   H412 
C396   H413 
C397   C398 
C397   H414 
C397   H415 
C398   H421 
C398   H422 
C398   H423 
O399   C400 
C400   C401 
C400   H406 
C400   H407 
C401   C402 
C401   H410 
C401   H411 
C402   C403 
C402   H416 
C402   H417 
C403   H418 
C403   H419 
C403   H420 
  
#END  
