data_
_symmetry_cell_setting           triclinic 
_symmetry_space_group_name_H-M   'P 1' 
_symmetry_Int_Tables_number      1 
loop_ 
_symmetry_equiv_pos_site_id 
_symmetry_equiv_pos_as_xyz 
1 x,y,z 
_cell_length_a             14.774011        
_cell_length_b             15.865568        
_cell_length_c             19.208900        
_cell_angle_alpha          91.894033        
_cell_angle_beta           89.794994        
_cell_angle_gamma          89.763739        
loop_  
_atom_site_label   
_atom_site_type_symbol  
_atom_site_fract_x  
_atom_site_fract_y  
_atom_site_fract_z 
 Cu0  Cu    -0.002227      0.002833      0.067646 
 Cu1  Cu    -0.003318      0.001918     -0.068164 
 O2  O    -0.077990      0.104145     -0.056190 
 C3  C    -0.119273      0.119801      0.001144 
 O4  O    -0.105571      0.083034      0.058224 
 O5  O     0.105815      0.074007     -0.055381 
 C6  C     0.124355      0.110379      0.003090 
 O7  O     0.086156      0.095927      0.061002 
 O8  O    -0.112930     -0.070304     -0.058187 
 C9  C    -0.124989     -0.109722     -0.002143 
 O10  O    -0.085918     -0.093315      0.055643 
 O11  O     0.072803     -0.099269     -0.062707 
 C12  C     0.113579     -0.114984     -0.006391 
 O13  O     0.100408     -0.077239      0.052369 
 Cu14  Cu     0.498477     -0.497181      0.061835 
 Cu15  Cu     0.496541     -0.498756     -0.073954 
 O16  O     0.391303     -0.422142     -0.060432 
 C17  C     0.378387     -0.382727     -0.002397 
 O18  O     0.416884     -0.398998      0.054801 
 O19  O    -0.424789     -0.399107     -0.063661 
 C20  C    -0.384807     -0.381555     -0.006497 
 O21  O    -0.396058     -0.419780      0.050260 
 O22  O     0.413932      0.403949     -0.066462 
 C23  C     0.377993      0.386309     -0.008386 
 O24  O     0.394367      0.423665      0.050090 
 O25  O    -0.396632      0.425538     -0.066043 
 C26  C    -0.381684      0.388360     -0.009370 
 O27  O    -0.420988      0.404162      0.048793 
 C28  C    -0.333057      0.249675      0.031964 
 C29  C    -0.314015      0.318035     -0.009880 
 C30  C    -0.233163      0.322280     -0.048097 
 C31  C    -0.170429      0.256145     -0.043510 
 C32  C    -0.188708      0.188558     -0.000603 
 C33  C    -0.270084      0.183876      0.036894 
 O34  O    -0.219028      0.392220     -0.086898 
 C35  C    -0.132557      0.406588     -0.118639 
 C36  C    -0.063857      0.436025     -0.063916 
 C37  C     0.032112      0.445654     -0.093605 
 C38  C     0.101885      0.474857     -0.039062 
 O39  O    -0.283987      0.114302      0.076046 
 C40  C    -0.373796      0.091274      0.096828 
 C41  C    -0.400535      0.133372      0.166542 
 C42  C    -0.335563      0.114710      0.226382 
 C43  C    -0.365179      0.156791      0.295778 
 H44  H    -0.106792      0.257249     -0.072554 
 H45  H    -0.396855      0.248280      0.060696 
 H46  H    -0.422381      0.106304      0.055597 
 H47  H    -0.373795      0.022168      0.100850 
 H48  H    -0.109830      0.349567     -0.148067 
 H49  H    -0.142715      0.455882     -0.156952 
 H50  H    -0.405553      0.202180      0.161876 
 H51  H    -0.468920      0.112137      0.180512 
 H52  H    -0.086598      0.496785     -0.040334 
 H53  H    -0.061438      0.391719     -0.020995 
 H54  H     0.054045      0.384694     -0.116990 
 H55  H     0.030571      0.490164     -0.136348 
 H56  H    -0.330115      0.046050      0.232154 
 H57  H    -0.267196      0.136517      0.212951 
 H58  H    -0.316538      0.143936      0.337288 
 H59  H    -0.370444      0.225529      0.291782 
 H60  H    -0.431631      0.134042      0.312570 
 H61  H     0.169671      0.480232     -0.062316 
 H62  H     0.083926     -0.463211     -0.015538 
 H63  H     0.107117      0.429975      0.003171 
 N64  N    -0.015453      0.001350      0.317962 
 C65  C     0.060695     -0.049906      0.289228 
 C66  C    -0.100802     -0.033858      0.289439 
 C67  C    -0.005969      0.088028      0.292818 
 C68  C    -0.098972     -0.036456      0.207879 
 H69  H    -0.110723     -0.097699      0.308955 
 H70  H    -0.157846      0.004968      0.309595 
 C71  C     0.062781     -0.047741      0.207910 
 H72  H     0.124852     -0.026056      0.311268 
 H73  H     0.053231     -0.115216      0.306300 
 C74  C    -0.008619      0.088365      0.211410 
 H75  H    -0.060184      0.128237      0.315628 
 H76  H     0.058584      0.114158      0.312058 
 H77  H     0.126327     -0.019418      0.189736 
 H78  H     0.060362     -0.112275      0.185022 
 H79  H    -0.103256     -0.102143      0.187546 
 H80  H    -0.157623     -0.002630      0.186749 
 H81  H     0.052238      0.118956      0.190814 
 N82  N    -0.014572      0.001405      0.181635 
 H83  H    -0.067282      0.124934      0.193520 
 C84  C     0.206160      0.217939     -0.061862 
 C85  C     0.194955      0.177992      0.001408 
 C86  C     0.245476      0.202967      0.060319 
 C87  C     0.303575      0.272381      0.055803 
 C88  C     0.313217      0.313662     -0.007210 
 C89  C     0.264710      0.286820     -0.066739 
 O90  O     0.236490      0.158039      0.119823 
 C91  C     0.295697      0.175399      0.177628 
 C92  C     0.278031      0.110428      0.232608 
 C93  C     0.333890      0.124672      0.299295 
 C94  C     0.315562      0.059068      0.354475 
 O95  O     0.273931      0.329395     -0.127492 
 C96  C     0.223679      0.301126     -0.187726 
 C97  C     0.237851      0.362664     -0.245811 
 C98  C     0.188082      0.338535     -0.313764 
 C99  C     0.084452      0.338715     -0.307467 
 H100  H     0.342155      0.293763      0.101321 
 H101  H     0.166756      0.196499     -0.106955 
 H102  H     0.247258      0.237465     -0.204055 
 H103  H     0.151358      0.297789     -0.174271 
 H104  H     0.366621      0.171918      0.159746 
 H105  H     0.282338      0.239582      0.198944 
 H106  H     0.216465      0.426344     -0.227742 
 H107  H     0.310713      0.366607     -0.257109 
 H108  H     0.205682      0.111472      0.246451 
 H109  H     0.292199      0.046849      0.210271 
 H110  H     0.406429      0.124032      0.285999 
 H111  H     0.319213      0.188064      0.321802 
 H112  H     0.208500      0.382317     -0.354271 
 H113  H     0.211220      0.275760     -0.332570 
 H114  H     0.058737      0.400900     -0.289707 
 H115  H     0.053061      0.323086     -0.358082 
 H116  H     0.060508      0.292097     -0.270672 
 H117  H     0.331973     -0.005073      0.334893 
 H118  H     0.356236      0.071765      0.401436 
 H119  H     0.244095      0.059865      0.370673 
 C120  C     0.246748     -0.182487      0.045745 
 C121  C     0.183438     -0.183563     -0.008240 
 C122  C     0.184043     -0.247720     -0.060426 
 C123  C     0.249759     -0.311409     -0.057763 
 C124  C     0.312344     -0.310972     -0.003203 
 C125  C     0.312787     -0.245895      0.048175 
 O126  O     0.119045     -0.246897     -0.111214 
 C127  C     0.109831     -0.318446     -0.158194 
 C128  C     0.023350     -0.309213     -0.200268 
 C129  C    -0.063208     -0.302167     -0.155618 
 C130  C    -0.150452     -0.299813     -0.198617 
 O131  O     0.378506     -0.245501      0.098415 
 C132  C     0.386853     -0.173043      0.144614 
 C133  C     0.472745     -0.181092      0.187333 
 C134  C    -0.439707     -0.186598      0.143848 
 C135  C    -0.353715     -0.185556      0.188427 
 H136  H     0.251509     -0.362118     -0.097600 
 H137  H     0.244376     -0.131979      0.085780 
 H138  H     0.389287     -0.115223      0.114424 
 H139  H     0.327059     -0.169374      0.179094 
 H140  H     0.169350     -0.322023     -0.192952 
 H141  H     0.107388     -0.376438     -0.128311 
 H142  H     0.476741     -0.126266      0.223873 
 H143  H     0.467681     -0.237276      0.219285 
 H144  H     0.028660     -0.253470     -0.232719 
 H145  H     0.017601     -0.364043     -0.236621 
 H146  H    -0.066180     -0.355480     -0.120409 
 H147  H    -0.059735     -0.244827     -0.121789 
 H148  H    -0.440684     -0.244659      0.110767 
 H149  H    -0.437584     -0.133980      0.107911 
 H150  H    -0.292680     -0.189196      0.155558 
 H151  H    -0.349229     -0.127358      0.220861 
 H152  H    -0.351860     -0.239139      0.223220 
 H153  H    -0.157938     -0.357089     -0.231759 
 H154  H    -0.210332     -0.295289     -0.164585 
 H155  H    -0.151837     -0.245334     -0.232469 
 N156  N     0.492340     -0.496251      0.313002 
 C157  C    -0.427009     -0.451864      0.286844 
 C158  C     0.493439      0.416386      0.283349 
 C159  C     0.410896     -0.453389      0.286432 
 C160  C     0.495555      0.416206      0.201862 
 H161  H    -0.447386      0.382535      0.303501 
 H162  H     0.433026      0.383056      0.301859 
 C163  C    -0.426706     -0.451397      0.205367 
 H164  H    -0.426861     -0.386759      0.308822 
 H165  H    -0.365538     -0.482885      0.306226 
 C166  C     0.411099     -0.454528      0.204921 
 H167  H     0.349960     -0.484557      0.306489 
 H168  H     0.409446     -0.387869      0.307489 
 H169  H    -0.427641     -0.386155      0.187249 
 H170  H    -0.364539     -0.481259      0.184061 
 H171  H    -0.443053      0.383959      0.181641 
 H172  H     0.437358      0.381148      0.180058 
 H173  H     0.407905     -0.389657      0.186184 
 N174  N     0.493620     -0.496585      0.176615 
 H175  H     0.351111     -0.487677      0.183920 
 C176  C    -0.261313     -0.180035     -0.052329 
 C177  C    -0.189697     -0.182243     -0.004913 
 C178  C    -0.180563     -0.250015      0.039917 
 C179  C    -0.247354     -0.312059      0.041405 
 C180  C    -0.319386     -0.309602     -0.005647 
 C181  C    -0.327090     -0.243212     -0.052206 
 O182  O    -0.108026     -0.258273      0.082969 
 C183  C    -0.028299     -0.291016      0.048420 
 C184  C     0.050662     -0.292521      0.099041 
 C185  C     0.035007     -0.344140      0.164128 
 C186  C     0.023769     -0.438918      0.148709 
 O187  O    -0.394099     -0.239180     -0.100860 
 C188  C    -0.481836     -0.212608     -0.076061 
 C189  C    -0.489385     -0.116968     -0.079947 
 C190  C     0.415668     -0.082613     -0.061971 
 C191  C     0.406920      0.013253     -0.067982 
 H192  H    -0.239627     -0.363501      0.077303 
 H193  H    -0.268421     -0.128821     -0.088519 
 H194  H     0.467244     -0.244559     -0.109208 
 H195  H    -0.492837     -0.233075     -0.022421 
 H196  H    -0.042805     -0.354672      0.026796 
 H197  H    -0.011763     -0.251138      0.004312 
 H198  H    -0.439700     -0.086986     -0.044473 
 H199  H    -0.470827     -0.098054     -0.132753 
 H200  H     0.111132     -0.317242      0.071453 
 H201  H     0.066780     -0.227183      0.115329 
 H202  H     0.092684     -0.334026      0.199552 
 H203  H    -0.024992     -0.319359      0.192169 
 H204  H     0.365472     -0.114054     -0.096116 
 H205  H     0.398139     -0.099712     -0.008593 
 H206  H     0.453840      0.046916     -0.032689 
 H207  H     0.421480      0.032760     -0.121228 
 H208  H     0.337980      0.034807     -0.054580 
 H209  H     0.084090     -0.465946      0.122621 
 H210  H     0.013343     -0.472836      0.197000 
 H211  H    -0.034769     -0.451871      0.114996 
 Cu212  Cu    -0.004405      0.005179     -0.431831 
 Cu213  Cu    -0.004789      0.001168      0.432320 
 O214  O    -0.106812      0.083311      0.446113 
 C215  C    -0.120573      0.122257     -0.495552 
 O216  O    -0.084630      0.103897     -0.437846 
 O217  O     0.078303      0.097275      0.440432 
 C218  C     0.118121      0.115535      0.497507 
 O219  O     0.103980      0.080268     -0.444619 
 O220  O    -0.088949     -0.093681      0.440174 
 C221  C    -0.127299     -0.109123      0.497736 
 O222  O    -0.111730     -0.070748     -0.444160 
 O223  O     0.099338     -0.079178      0.444945 
 C224  C     0.111193     -0.115504     -0.497476 
 O225  O     0.072677     -0.095315     -0.440022 
 Cu226  Cu     0.494654     -0.495902     -0.436610 
 Cu227  Cu     0.496685     -0.498131      0.427524 
 O228  O     0.403116     -0.410256      0.438299 
 C229  C     0.365969     -0.392432      0.496826 
 O230  O     0.379414     -0.431017     -0.446932 
 O231  O    -0.410313     -0.408976      0.442324 
 C232  C    -0.397910     -0.371568     -0.498720 
 O233  O    -0.437625     -0.389363     -0.442250 
 O234  O     0.403171      0.412045      0.437935 
 C235  C     0.390838      0.375982      0.495641 
 O236  O     0.428689      0.396583     -0.446893 
 O237  O    -0.405929      0.417475      0.434255 
 C238  C    -0.369684      0.403067      0.492723 
 O239  O    -0.390445      0.439440     -0.449132 
 C240  C    -0.278270      0.303477     -0.439908 
 C241  C    -0.298546      0.335648      0.494987 
 C242  C    -0.257727      0.301502      0.434290 
 C243  C    -0.199404      0.232346      0.438884 
 C244  C    -0.182253      0.197578     -0.496313 
 C245  C    -0.222944      0.231867     -0.435247 
 O246  O    -0.279151      0.329483      0.369958 
 C247  C    -0.210076      0.373639      0.333696 
 C248  C    -0.228831      0.362718      0.256048 
 C249  C    -0.167567      0.415738      0.210070 
 C250  C    -0.184454      0.399869      0.132051 
 O251  O    -0.209634      0.194041     -0.372788 
 C252  C    -0.269297      0.215512     -0.315522 
 C253  C    -0.261128      0.148262     -0.261199 
 C254  C    -0.325494      0.162183     -0.198764 
 C255  C    -0.319556      0.092225     -0.145671 
 H256  H    -0.169766      0.205480      0.390994 
 H257  H    -0.309372      0.331616     -0.393039 
 H258  H    -0.250289      0.277857     -0.293285 
 H259  H    -0.339663      0.219005     -0.334102 
 H260  H    -0.213350      0.440449      0.351115 
 H261  H    -0.142465      0.349354      0.346546 
 H262  H    -0.274529      0.086014     -0.286106 
 H263  H    -0.191037      0.146303     -0.242167 
 H264  H    -0.220969      0.295609      0.240435 
 H265  H    -0.299897      0.378872      0.245683 
 H266  H    -0.178192      0.483120      0.223217 
 H267  H    -0.096271      0.402029      0.221794 
 H268  H    -0.310434      0.223290     -0.172504 
 H269  H    -0.395619      0.166845     -0.217549 
 H270  H    -0.365953      0.104784     -0.101634 
 H271  H    -0.337235      0.030430     -0.169236 
 H272  H    -0.250939      0.087170     -0.124205 
 H273  H    -0.254575      0.415238      0.118147 
 H274  H    -0.139889      0.438428      0.100247 
 H275  H    -0.172132      0.333472      0.116548 
 N276  N     0.003784      0.001304     -0.182136 
 C277  C    -0.078382     -0.040163     -0.210442 
 C278  C     0.006516      0.088542     -0.207181 
 C279  C     0.083906     -0.044274     -0.210826 
 C280  C     0.007022      0.088470     -0.288608 
 H281  H    -0.052339      0.124003     -0.186112 
 H282  H     0.067236      0.120304     -0.186138 
 C283  C    -0.078380     -0.040123     -0.291821 
 H284  H    -0.081032     -0.105254     -0.192134 
 H285  H    -0.138765     -0.007195     -0.189153 
 C286  C     0.083730     -0.044804     -0.292241 
 H287  H     0.145694     -0.014221     -0.189813 
 H288  H     0.083566     -0.109348     -0.192499 
 H289  H    -0.081214     -0.105267     -0.313638 
 H290  H    -0.138641     -0.006977     -0.311016 
 H291  H    -0.051295      0.124365     -0.307780 
 H292  H     0.068275      0.119737     -0.307972 
 H293  H     0.082429     -0.110245     -0.313396 
 N294  N     0.003943      0.001188     -0.318273 
 H295  H     0.145807     -0.015751     -0.312451 
 C296  C     0.258860      0.180259     -0.455417 
 C297  C     0.188136      0.183773      0.496492 
 C298  C     0.183727      0.248733      0.448517 
 C299  C     0.252769      0.308869      0.447716 
 C300  C     0.323350      0.305577      0.495901 
 C301  C     0.328223      0.240479     -0.456226 
 O302  O     0.113299      0.251478      0.402436 
 C303  C     0.074563      0.332076      0.387203 
 C304  C     0.100928      0.359726      0.314442 
 C305  C     0.076171      0.295712      0.255876 
 C306  C     0.094702      0.326740      0.182394 
 O307  O     0.401374      0.238598     -0.412401 
 C308  C     0.417863      0.167529     -0.369656 
 C309  C     0.449108      0.088866     -0.411598 
 C310  C    -0.457361      0.094991     -0.446745 
 C311  C    -0.451557      0.159339      0.495487 
 H312  H     0.250401      0.359134      0.410312 
 H313  H     0.260424      0.129488     -0.418405 
 H314  H     0.470744      0.187008     -0.332276 
 H315  H     0.356812      0.154890     -0.338690 
 H316  H     0.000689      0.324836      0.391281 
 H317  H     0.094016      0.379913      0.427256 
 H318  H     0.450713      0.035638     -0.376212 
 H319  H     0.398856      0.071479     -0.451712 
 H320  H     0.067437      0.420354      0.304733 
 H321  H     0.174147      0.372032      0.312049 
 H322  H     0.114890      0.237347      0.263231 
 H323  H     0.004234      0.278831      0.260468 
 H324  H    -0.405806      0.109690     -0.407008 
 H325  H    -0.438930      0.032299     -0.468854 
 H326  H    -0.384900      0.156641      0.469941 
 H327  H     0.497202      0.147361      0.455075 
 H328  H    -0.461207      0.224277     -0.484133 
 H329  H     0.053793      0.382583      0.171297 
 H330  H     0.166160      0.343531      0.175380 
 H331  H     0.078223      0.277799      0.142598 
 C332  C     0.251766     -0.184214      0.458304 
 C333  C     0.177077     -0.187376     -0.496948 
 C334  C     0.163940     -0.256380     -0.453875 
 C335  C     0.228186     -0.321681     -0.454335 
 C336  C     0.302172     -0.318920     -0.499841 
 C337  C     0.315562     -0.249562      0.457823 
 O338  O     0.088189     -0.259561     -0.412776 
 C339  C     0.044777     -0.340080     -0.408031 
 C340  C    -0.055423     -0.324564     -0.393507 
 C341  C    -0.115791     -0.402555     -0.405346 
 C342  C    -0.089470     -0.478888     -0.362618 
 O343  O     0.389207     -0.246053      0.414948 
 C344  C     0.450983     -0.178691      0.430704 
 C345  C    -0.468101     -0.188906      0.382024 
 C346  C    -0.394615     -0.121690      0.393538 
 C347  C    -0.423979     -0.032423      0.375220 
 H348  H     0.219242     -0.375076     -0.420560 
 H349  H     0.261054     -0.131483      0.423890 
 H350  H     0.416879     -0.117656      0.424117 
 H351  H     0.472052     -0.182054      0.485565 
 H352  H     0.054210     -0.377362     -0.456984 
 H353  H     0.076453     -0.374900     -0.365781 
 H354  H    -0.438107     -0.251784      0.388442 
 H355  H    -0.491290     -0.188002      0.327794 
 H356  H    -0.064629     -0.299012     -0.339995 
 H357  H    -0.079401     -0.274810     -0.427675 
 H358  H    -0.186430     -0.384641     -0.393376 
 H359  H    -0.114936     -0.420933     -0.461143 
 H360  H    -0.372805     -0.121450      0.448262 
 H361  H    -0.334477     -0.139826      0.362385 
 H362  H    -0.481757     -0.010147      0.407022 
 H363  H    -0.368298      0.012241      0.384438 
 H364  H    -0.443458     -0.029425      0.320201 
 H365  H    -0.091191     -0.463552     -0.306445 
 H366  H    -0.136398      0.468498     -0.372611 
 H367  H    -0.021113      0.498199     -0.376037 
 N368  N    -0.493789     -0.498446     -0.187260 
 C369  C    -0.490065      0.414246     -0.216880 
 C370  C     0.423146     -0.457164     -0.212734 
 C371  C    -0.414717     -0.452448     -0.214098 
 C372  C     0.422304     -0.456984     -0.294076 
 H373  H     0.363387     -0.490362     -0.192900 
 H374  H     0.419840     -0.392014     -0.190929 
 C375  C    -0.492166      0.414166     -0.298259 
 H376  H    -0.427894      0.383342     -0.198640 
 H377  H     0.452644      0.378044     -0.196578 
 C378  C    -0.415297     -0.453197     -0.295507 
 H379  H    -0.416522     -0.387014     -0.192931 
 H380  H    -0.352172     -0.481411     -0.194496 
 H381  H    -0.432075      0.381746     -0.320528 
 H382  H     0.448407      0.379347     -0.318132 
 H383  H     0.361924     -0.489837     -0.314707 
 H384  H     0.419016     -0.391865     -0.312292 
 H385  H    -0.353551     -0.483568     -0.317108 
 N386  N    -0.495496     -0.498579     -0.323260 
 H387  H    -0.416029     -0.388154     -0.313905 
 C388  C    -0.269635     -0.300649      0.446066 
 C389  C    -0.328771     -0.302577     -0.497040 
 C390  C    -0.323253     -0.241845     -0.442312 
 C391  C    -0.255571     -0.180159     -0.444670 
 C392  C    -0.196744     -0.177985      0.497992 
 C393  C    -0.203204     -0.238192      0.442813 
 O394  O    -0.384792     -0.244661     -0.388838 
 C395  C    -0.394580     -0.173122     -0.341711 
 C396  C    -0.478035     -0.185180     -0.296269 
 C397  C     0.433244     -0.195329     -0.337419 
 C398  C     0.349184     -0.201445     -0.290707 
 O399  O    -0.144324     -0.234397      0.387524 
 C400  C    -0.146113     -0.297443      0.332010 
 C401  C    -0.102583     -0.379824      0.354506 
 C402  C     0.001514     -0.379868      0.356882 
 C403  C     0.043087     -0.304260      0.396551 
 H404  H    -0.249402     -0.133125     -0.402195 
 H405  H    -0.275642     -0.348381      0.404103 
 H406  H    -0.216085     -0.306745      0.313798 
 H407  H    -0.108468     -0.271713      0.288020 
 H408  H    -0.333466     -0.167598     -0.309157 
 H409  H    -0.401275     -0.115280     -0.371591 
 H410  H    -0.128459     -0.396702      0.406018 
 H411  H    -0.124184     -0.430990      0.318306 
 H412  H    -0.468006     -0.240621     -0.264064 
 H413  H    -0.484471     -0.130623     -0.259600 
 H414  H     0.425081     -0.141808     -0.371963 
 H415  H     0.437748     -0.252048     -0.372007 
 H416  H     0.024361     -0.438342      0.380812 
 H417  H     0.028590     -0.382738      0.303502 
 H418  H     0.029698     -0.244753      0.370710 
 H419  H     0.015694     -0.297508      0.449649 
 H420  H     0.116934     -0.311191      0.400216 
 H421  H     0.340508     -0.144391     -0.257267 
 H422  H     0.287532     -0.209046     -0.322165 
 H423  H     0.353672     -0.255602     -0.256659 
loop_  
_geom_bond_atom_site_label_1  
_geom_bond_atom_site_label_2  
Cu0   Cu1 
Cu0   O4 
Cu0   O7 
Cu0   O10 
Cu0   O13 
Cu0   N82 
Cu1   O2 
Cu1   O5 
Cu1   O8 
Cu1   O11 
Cu1   N276 
O2   C3 
C3   O4 
C3   C32 
O5   C6 
C6   O7 
C6   C85 
O8   C9 
C9   O10 
C9   C177 
O11   C12 
C12   O13 
C12   C121 
Cu14   Cu15 
Cu14   O18 
Cu14   O21 
Cu14   O24 
Cu14   O27 
Cu14   N174 
Cu15   O16 
Cu15   O19 
Cu15   O22 
Cu15   O25 
Cu15   N368 
O16   C17 
C17   O18 
C17   C124 
O19   C20 
C20   O21 
C20   C180 
O22   C23 
C23   O24 
C23   C88 
O25   C26 
C26   O27 
C26   C29 
C28   C29 
C28   C33 
C28   H45 
C29   C30 
C30   C31 
C30   O34 
C31   C32 
C31   H44 
C32   C33 
C33   O39 
O34   C35 
C35   C36 
C35   H48 
C35   H49 
C36   C37 
C36   H52 
C36   H53 
C37   C38 
C37   H54 
C37   H55 
C38   H61 
C38   H62 
C38   H63 
O39   C40 
C40   C41 
C40   H46 
C40   H47 
C41   C42 
C41   H50 
C41   H51 
C42   C43 
C42   H56 
C42   H57 
C43   H58 
C43   H59 
C43   H60 
N64   C65 
N64   C66 
N64   C67 
N64   Cu213 
C65   C71 
C65   H72 
C65   H73 
C66   C68 
C66   H69 
C66   H70 
C67   C74 
C67   H75 
C67   H76 
C68   H79 
C68   H80 
C68   N82 
C71   H77 
C71   H78 
C71   N82 
C74   H81 
C74   N82 
C74   H83 
C84   C85 
C84   C89 
C84   H101 
C85   C86 
C86   C87 
C86   O90 
C87   C88 
C87   H100 
C88   C89 
C89   O95 
O90   C91 
C91   C92 
C91   H104 
C91   H105 
C92   C93 
C92   H108 
C92   H109 
C93   C94 
C93   H110 
C93   H111 
C94   H117 
C94   H118 
C94   H119 
O95   C96 
C96   C97 
C96   H102 
C96   H103 
C97   C98 
C97   H106 
C97   H107 
C98   C99 
C98   H112 
C98   H113 
C99   H114 
C99   H115 
C99   H116 
C120   C121 
C120   C125 
C120   H137 
C121   C122 
C122   C123 
C122   O126 
C123   C124 
C123   H136 
C124   C125 
C125   O131 
O126   C127 
C127   C128 
C127   H140 
C127   H141 
C128   C129 
C128   H144 
C128   H145 
C129   C130 
C129   H146 
C129   H147 
C130   H153 
C130   H154 
C130   H155 
O131   C132 
C132   C133 
C132   H138 
C132   H139 
C133   C134 
C133   H142 
C133   H143 
C134   C135 
C134   H148 
C134   H149 
C135   H150 
C135   H151 
C135   H152 
N156   C157 
N156   C158 
N156   C159 
N156   Cu227 
C157   C163 
C157   H164 
C157   H165 
C158   C160 
C158   H161 
C158   H162 
C159   C166 
C159   H167 
C159   H168 
C160   H171 
C160   H172 
C160   N174 
C163   H169 
C163   H170 
C163   N174 
C166   H173 
C166   N174 
C166   H175 
C176   C177 
C176   C181 
C176   H193 
C177   C178 
C178   C179 
C178   O182 
C179   C180 
C179   H192 
C180   C181 
C181   O187 
O182   C183 
C183   C184 
C183   H196 
C183   H197 
C184   C185 
C184   H200 
C184   H201 
C185   C186 
C185   H202 
C185   H203 
C186   H209 
C186   H210 
C186   H211 
O187   C188 
C188   C189 
C188   H194 
C188   H195 
C189   C190 
C189   H198 
C189   H199 
C190   C191 
C190   H204 
C190   H205 
C191   H206 
C191   H207 
C191   H208 
Cu212   Cu213 
Cu212   O216 
Cu212   O219 
Cu212   O222 
Cu212   O225 
Cu212   N294 
Cu213   O214 
Cu213   O217 
Cu213   O220 
Cu213   O223 
O214   C215 
C215   O216 
C215   C244 
O217   C218 
C218   O219 
C218   C297 
O220   C221 
C221   O222 
C221   C392 
O223   C224 
C224   O225 
C224   C333 
Cu226   Cu227 
Cu226   O230 
Cu226   O233 
Cu226   O236 
Cu226   O239 
Cu226   N386 
Cu227   O228 
Cu227   O231 
Cu227   O234 
Cu227   O237 
O228   C229 
C229   O230 
C229   C336 
O231   C232 
C232   O233 
C232   C389 
O234   C235 
C235   O236 
C235   C300 
O237   C238 
C238   O239 
C238   C241 
C240   C241 
C240   C245 
C240   H257 
C241   C242 
C242   C243 
C242   O246 
C243   C244 
C243   H256 
C244   C245 
C245   O251 
O246   C247 
C247   C248 
C247   H260 
C247   H261 
C248   C249 
C248   H264 
C248   H265 
C249   C250 
C249   H266 
C249   H267 
C250   H273 
C250   H274 
C250   H275 
O251   C252 
C252   C253 
C252   H258 
C252   H259 
C253   C254 
C253   H262 
C253   H263 
C254   C255 
C254   H268 
C254   H269 
C255   H270 
C255   H271 
C255   H272 
N276   C277 
N276   C278 
N276   C279 
C277   C283 
C277   H284 
C277   H285 
C278   C280 
C278   H281 
C278   H282 
C279   C286 
C279   H287 
C279   H288 
C280   H291 
C280   H292 
C280   N294 
C283   H289 
C283   H290 
C283   N294 
C286   H293 
C286   N294 
C286   H295 
C296   C297 
C296   C301 
C296   H313 
C297   C298 
C298   C299 
C298   O302 
C299   C300 
C299   H312 
C300   C301 
C301   O307 
O302   C303 
C303   C304 
C303   H316 
C303   H317 
C304   C305 
C304   H320 
C304   H321 
C305   C306 
C305   H322 
C305   H323 
C306   H329 
C306   H330 
C306   H331 
O307   C308 
C308   C309 
C308   H314 
C308   H315 
C309   C310 
C309   H318 
C309   H319 
C310   C311 
C310   H324 
C310   H325 
C311   H326 
C311   H327 
C311   H328 
C332   C333 
C332   C337 
C332   H349 
C333   C334 
C334   C335 
C334   O338 
C335   C336 
C335   H348 
C336   C337 
C337   O343 
O338   C339 
C339   C340 
C339   H352 
C339   H353 
C340   C341 
C340   H356 
C340   H357 
C341   C342 
C341   H358 
C341   H359 
C342   H365 
C342   H366 
C342   H367 
O343   C344 
C344   C345 
C344   H350 
C344   H351 
C345   C346 
C345   H354 
C345   H355 
C346   C347 
C346   H360 
C346   H361 
C347   H362 
C347   H363 
C347   H364 
N368   C369 
N368   C370 
N368   C371 
C369   C375 
C369   H376 
C369   H377 
C370   C372 
C370   H373 
C370   H374 
C371   C378 
C371   H379 
C371   H380 
C372   H383 
C372   H384 
C372   N386 
C375   H381 
C375   H382 
C375   N386 
C378   H385 
C378   N386 
C378   H387 
C388   C389 
C388   C393 
C388   H405 
C389   C390 
C390   C391 
C390   O394 
C391   C392 
C391   H404 
C392   C393 
C393   O399 
O394   C395 
C395   C396 
C395   H408 
C395   H409 
C396   C397 
C396   H412 
C396   H413 
C397   C398 
C397   H414 
C397   H415 
C398   H421 
C398   H422 
C398   H423 
O399   C400 
C400   C401 
C400   H406 
C400   H407 
C401   C402 
C401   H410 
C401   H411 
C402   C403 
C402   H416 
C402   H417 
C403   H418 
C403   H419 
C403   H420 
  
#END  
