data_
_symmetry_cell_setting           triclinic 
_symmetry_space_group_name_H-M   'P 1' 
_symmetry_Int_Tables_number      1 
loop_ 
_symmetry_equiv_pos_site_id 
_symmetry_equiv_pos_as_xyz 
1 x,y,z 
_cell_length_a             15.344514        
_cell_length_b             15.356960        
_cell_length_c             18.976819        
_cell_angle_alpha          87.341085        
_cell_angle_beta           88.658297        
_cell_angle_gamma          90.004794        
loop_  
_atom_site_label   
_atom_site_type_symbol  
_atom_site_fract_x  
_atom_site_fract_y  
_atom_site_fract_z 
 Cu0  Cu     0.001366     -0.004597      0.067034 
 Cu1  Cu     0.002274      0.002407     -0.069956 
 O2  O    -0.106184      0.071307     -0.060301 
 C3  C    -0.125618      0.105079     -0.002004 
 O4  O    -0.088661      0.087505      0.056410 
 O5  O     0.075065      0.110088     -0.061209 
 C6  C     0.112088      0.123222     -0.003188 
 O7  O     0.093611      0.084021      0.055751 
 O8  O    -0.069684     -0.105772     -0.055632 
 C9  C    -0.103596     -0.129938      0.004146 
 O10  O    -0.088190     -0.096118      0.062527 
 O11  O     0.109756     -0.068352     -0.062538 
 C12  C     0.128297     -0.107925     -0.004453 
 O13  O     0.091718     -0.095129      0.055103 
 Cu14  Cu     0.499584      0.495500      0.072291 
 Cu15  Cu    -0.497670     -0.497483     -0.064752 
 O16  O     0.427303     -0.393036     -0.055074 
 C17  C     0.388316     -0.379682      0.003435 
 O18  O     0.403921     -0.419357      0.062055 
 O19  O    -0.394205     -0.422442     -0.057225 
 C20  C    -0.375607     -0.389948      0.001018 
 O21  O    -0.412517     -0.409179      0.060599 
 O22  O     0.396201      0.430369     -0.055158 
 C23  C     0.375493      0.390852      0.003241 
 O24  O     0.412778      0.400475      0.061701 
 O25  O    -0.423158      0.396826     -0.052380 
 C26  C    -0.387230      0.376616      0.006067 
 O27  O    -0.404204      0.411252      0.064442 
 C28  C    -0.202574      0.222709      0.058796 
 C29  C    -0.196578      0.172209     -0.000699 
 C30  C    -0.253642      0.187301     -0.056898 
 C31  C    -0.313769      0.255635     -0.054403 
 C32  C    -0.319306      0.306462      0.004963 
 C33  C    -0.262406      0.291128      0.061116 
 O34  O    -0.250515      0.140156     -0.116190 
 C35  C    -0.302756      0.062344     -0.113836 
 C36  C    -0.396104      0.082617     -0.135603 
 C37  C    -0.404517      0.128964     -0.208854 
 C38  C    -0.371580      0.075682     -0.270526 
 O39  O    -0.263343      0.339033      0.119907 
 C40  C    -0.198593      0.406547      0.119497 
 C41  C    -0.169644      0.419295      0.194630 
 C42  C    -0.127936      0.338059      0.230328 
 C43  C    -0.097557      0.353107      0.305217 
 H44  H    -0.356445      0.267225     -0.099011 
 H45  H    -0.159493      0.212093      0.103296 
 H46  H    -0.142447      0.390151      0.085284 
 H47  H    -0.227974      0.466644      0.096638 
 H48  H    -0.271848      0.016271     -0.149375 
 H49  H    -0.301706      0.031333     -0.060281 
 H50  H    -0.122455      0.473388      0.193766 
 H51  H    -0.225713      0.439779      0.227120 
 H52  H    -0.433771      0.021485     -0.134034 
 H53  H    -0.427685      0.123119     -0.096000 
 H54  H    -0.473478      0.145796     -0.216777 
 H55  H    -0.369543      0.191558     -0.209737 
 H56  H    -0.174943      0.283758      0.232332 
 H57  H    -0.072139      0.317055      0.197743 
 H58  H    -0.047849      0.404646      0.305125 
 H59  H    -0.152172      0.372382      0.339640 
 H60  H    -0.069075      0.293634      0.329553 
 H61  H    -0.380694      0.111601     -0.321305 
 H62  H    -0.301793      0.060658     -0.266710 
 H63  H    -0.407068      0.013735     -0.272374 
 N64  N    -0.002012      0.008260      0.316523 
 C65  C     0.059827     -0.057798      0.290959 
 C66  C    -0.089568     -0.012516      0.291033 
 C67  C     0.023846      0.094777      0.285387 
 C68  C    -0.089347     -0.010801      0.208788 
 H69  H    -0.109581     -0.077313      0.313068 
 H70  H    -0.136720      0.034787      0.311281 
 C71  C     0.059599     -0.059213      0.208871 
 H72  H     0.125525     -0.042882      0.309436 
 H73  H     0.041646     -0.122464      0.314509 
 C74  C     0.026881      0.093730      0.203158 
 H75  H    -0.023117      0.143812      0.303425 
 H76  H     0.087882      0.112991      0.305340 
 H77  H     0.125740     -0.046940      0.186646 
 H78  H     0.039432     -0.123902      0.192123 
 H79  H    -0.112435     -0.073632      0.190469 
 H80  H    -0.134340      0.039540      0.187861 
 H81  H     0.093544      0.107773      0.182855 
 N82  N    -0.000645      0.007609      0.179525 
 H83  H    -0.015607      0.144713      0.179763 
 C84  C     0.181305      0.259366     -0.053917 
 C85  C     0.183829      0.189588     -0.003764 
 C86  C     0.248091      0.186271      0.048164 
 C87  C     0.304130      0.257168      0.053671 
 C88  C     0.302221      0.326447      0.003228 
 C89  C     0.238593      0.329647     -0.049076 
 O90  O     0.259195      0.118033      0.096162 
 C91  C     0.276881      0.034287      0.067777 
 C92  C     0.371893      0.007659      0.077417 
 C93  C     0.439419      0.074802      0.047978 
 C94  C    -0.466617      0.040947      0.049105 
 O95  O     0.231529      0.396935     -0.098458 
 C96  C     0.204976      0.479890     -0.072797 
 C97  C     0.105980      0.481186     -0.062882 
 C98  C     0.069236     -0.433357     -0.035072 
 C99  C     0.080053     -0.353707     -0.086444 
 H100  H     0.352753      0.254208      0.094794 
 H101  H     0.132342      0.262793     -0.094724 
 H102  H     0.237096      0.492379     -0.022920 
 H103  H     0.227460     -0.469386     -0.111927 
 H104  H     0.233362     -0.013368      0.095760 
 H105  H     0.260728      0.034620      0.011522 
 H106  H     0.075341      0.468290     -0.113271 
 H107  H     0.086056      0.427056     -0.025831 
 H108  H     0.383415     -0.006005      0.133914 
 H109  H     0.382578     -0.054515      0.051783 
 H110  H     0.423040      0.095935     -0.006343 
 H111  H     0.435400      0.133419      0.079069 
 H112  H    -0.000568     -0.442547     -0.021952 
 H113  H     0.100517     -0.420142      0.014929 
 H114  H     0.149013     -0.339550     -0.098992 
 H115  H     0.047059     -0.363526     -0.136218 
 H116  H     0.051736     -0.295142     -0.063779 
 H117  H    -0.457942     -0.014206      0.014745 
 H118  H    -0.420329      0.092247      0.030822 
 H119  H    -0.448222      0.019039      0.102639 
 C120  C     0.196251     -0.236758      0.053561 
 C121  C     0.197256     -0.176970     -0.004458 
 C122  C     0.258881     -0.183515     -0.059950 
 C123  C     0.319770     -0.251534     -0.056225 
 C124  C     0.318872     -0.311101      0.001939 
 C125  C     0.255920     -0.305734      0.056549 
 O126  O     0.259030     -0.122465     -0.115178 
 C127  C     0.314067     -0.135281     -0.176157 
 C128  C     0.303604     -0.059805     -0.230401 
 C129  C     0.349563      0.025597     -0.213265 
 C130  C     0.321213      0.063672     -0.142993 
 O131  O     0.253925     -0.368307      0.110673 
 C132  C     0.181904     -0.370928      0.160558 
 C133  C     0.185765     -0.454604      0.206864 
 C134  C     0.183996      0.461578      0.165481 
 C135  C     0.181018      0.377952      0.213008 
 H136  H     0.368859     -0.257588     -0.098255 
 H137  H     0.147528     -0.230682      0.095907 
 H138  H     0.185576     -0.313581      0.193217 
 H139  H     0.119992     -0.367946      0.132253 
 H140  H     0.382545     -0.139901     -0.160306 
 H141  H     0.295668     -0.197274     -0.198888 
 H142  H     0.244797     -0.454210      0.238744 
 H143  H     0.130276     -0.455360      0.244805 
 H144  H     0.329569     -0.080512     -0.281583 
 H145  H     0.233862     -0.047034     -0.238251 
 H146  H     0.420474      0.014665     -0.213544 
 H147  H     0.338044      0.074411     -0.256409 
 H148  H     0.127193      0.463037      0.131030 
 H149  H     0.241797      0.460018      0.129967 
 H150  H     0.237681      0.373186      0.247308 
 H151  H     0.122056      0.375411      0.247088 
 H152  H     0.180854      0.319787      0.181314 
 H153  H     0.353489      0.126430     -0.135722 
 H154  H     0.250520      0.074925     -0.140063 
 H155  H     0.338090      0.019882     -0.097985 
 N156  N     0.496708      0.499748      0.322823 
 C157  C     0.450909      0.421943      0.298875 
 C158  C     0.452485     -0.421809      0.293052 
 C159  C    -0.412772      0.498789      0.294199 
 C160  C     0.455432     -0.420778      0.210805 
 H161  H     0.384293     -0.421736      0.312735 
 H162  H     0.483526     -0.363032      0.312377 
 C163  C     0.449504      0.423069      0.216613 
 H164  H     0.484073      0.362922      0.320021 
 H165  H     0.383860      0.420416      0.321162 
 C166  C    -0.412286      0.496132      0.212141 
 H167  H    -0.378207     -0.442887      0.310812 
 H168  H    -0.378133      0.441723      0.317134 
 H169  H     0.478539      0.362984      0.196821 
 H170  H     0.381921      0.425879      0.198171 
 H171  H     0.388921     -0.416188      0.190414 
 H172  H     0.491411     -0.363418      0.188542 
 H173  H    -0.380990      0.435767      0.195155 
 N174  N     0.497759      0.499473      0.185710 
 H175  H    -0.374142     -0.449006      0.187940 
 C176  C    -0.258398     -0.315247      0.062854 
 C177  C    -0.303997     -0.323647      0.000563 
 C178  C    -0.282789     -0.271222     -0.059883 
 C179  C    -0.213724     -0.212259     -0.058543 
 C180  C    -0.169435     -0.202081      0.004250 
 C181  C    -0.190063     -0.254655      0.065112 
 O182  O    -0.326757     -0.274885     -0.121247 
 C183  C    -0.406269     -0.225740     -0.123153 
 C184  C    -0.407695     -0.171717     -0.192448 
 C185  C    -0.412116     -0.226400     -0.258028 
 C186  C    -0.409376     -0.171420     -0.327441 
 O187  O    -0.142758     -0.245725      0.124886 
 C188  C    -0.160797     -0.303519      0.185099 
 C189  C    -0.099402     -0.282686      0.243735 
 C190  C    -0.117828     -0.337003      0.312538 
 C191  C    -0.057054     -0.314859      0.372079 
 H192  H    -0.198529     -0.172407     -0.106308 
 H193  H    -0.276111     -0.356632      0.109314 
 H194  H    -0.229017     -0.295128      0.202843 
 H195  H    -0.151735     -0.371385      0.169969 
 H196  H    -0.461421     -0.271710     -0.118422 
 H197  H    -0.411094     -0.183373     -0.077862 
 H198  H    -0.031493     -0.293050      0.225868 
 H199  H    -0.104957     -0.213095      0.254494 
 H200  H    -0.463828     -0.127100     -0.191577 
 H201  H    -0.349170     -0.130042     -0.196718 
 H202  H    -0.357756     -0.273124     -0.258145 
 H203  H    -0.472345     -0.265382     -0.254990 
 H204  H    -0.185868     -0.327044      0.330105 
 H205  H    -0.111931     -0.406852      0.302490 
 H206  H    -0.074344     -0.352592      0.421042 
 H207  H     0.011097     -0.329667      0.358199 
 H208  H    -0.060890     -0.245467      0.383729 
 H209  H    -0.347619     -0.135394     -0.334513 
 H210  H    -0.415717     -0.212622     -0.372922 
 H211  H    -0.462756     -0.123800     -0.329105 
 Cu212  Cu    -0.003983     -0.001404     -0.433243 
 Cu213  Cu    -0.002907      0.003035      0.429861 
 O214  O    -0.084382      0.102674      0.436991 
 C215  C    -0.119756      0.119321      0.496265 
 O216  O    -0.102157      0.081610     -0.444530 
 O217  O     0.099468      0.081635      0.436262 
 C218  C     0.115240      0.117052      0.493971 
 O219  O     0.076250      0.099082     -0.447209 
 O220  O    -0.104800     -0.075257      0.444237 
 C221  C    -0.122204     -0.114590     -0.496520 
 O222  O    -0.084988     -0.100984     -0.438780 
 O223  O     0.074419     -0.100396      0.441894 
 C224  C     0.112351     -0.117661      0.499832 
 O225  O     0.096099     -0.081666     -0.442206 
 Cu226  Cu     0.495288      0.499614     -0.427261 
 Cu227  Cu     0.496468     -0.497563      0.435916 
 O228  O     0.388954     -0.426334      0.444857 
 C229  C     0.369824     -0.391386     -0.497224 
 O230  O     0.407700     -0.406547     -0.439004 
 O231  O    -0.430262     -0.391671      0.439094 
 C232  C    -0.394489     -0.374362      0.496717 
 O233  O    -0.411805     -0.411936     -0.443326 
 O234  O     0.424315      0.396314      0.450452 
 C235  C     0.385027      0.377897     -0.490919 
 O236  O     0.400803      0.412104     -0.432755 
 O237  O    -0.398443      0.427987      0.448278 
 C238  C    -0.378354      0.392431     -0.492242 
 O239  O    -0.414729      0.407984     -0.433172 
 C240  C    -0.293446      0.284616      0.442360 
 C241  C    -0.308062      0.324643     -0.493618 
 C242  C    -0.261860      0.298109     -0.433133 
 C243  C    -0.200799      0.230427     -0.437900 
 C244  C    -0.187242      0.189692      0.498245 
 C245  C    -0.235772      0.214598      0.438929 
 O246  O    -0.277088      0.340650     -0.371989 
 C247  C    -0.248820      0.303508     -0.305480 
 C248  C    -0.157158      0.334077     -0.289351 
 C249  C    -0.125037      0.296297     -0.218151 
 C250  C    -0.031618      0.323102     -0.202146 
 O251  O    -0.230249      0.173136      0.376961 
 C252  C    -0.292346      0.103742      0.372336 
 C253  C    -0.324289      0.100266      0.297049 
 C254  C    -0.371226      0.183496      0.270313 
 C255  C    -0.408406      0.176025      0.196537 
 H256  H    -0.162883      0.209977     -0.392097 
 H257  H    -0.329417      0.303761      0.395236 
 H258  H    -0.260209      0.042312      0.389186 
 H259  H    -0.347738      0.113192      0.409249 
 H260  H    -0.295461      0.325052     -0.264906 
 H261  H    -0.253184      0.231878     -0.304853 
 H262  H    -0.268969      0.087468      0.261002 
 H263  H    -0.368843      0.044362      0.294204 
 H264  H    -0.110722      0.316899     -0.331587 
 H265  H    -0.156545      0.405796     -0.288929 
 H266  H    -0.169311      0.316972     -0.175547 
 H267  H    -0.129196      0.224680     -0.217153 
 H268  H    -0.424227      0.199066      0.307787 
 H269  H    -0.325535      0.238865      0.269481 
 H270  H    -0.357058      0.160436      0.157769 
 H271  H    -0.458288      0.124715      0.196217 
 H272  H    -0.438706      0.237389      0.177782 
 H273  H     0.015022      0.300341     -0.242053 
 H274  H    -0.025392      0.394301     -0.200898 
 H275  H    -0.012036      0.295102     -0.150526 
 N276  N    -0.002451     -0.008408     -0.182749 
 C277  C     0.051637      0.063815     -0.214036 
 C278  C     0.031899     -0.091790     -0.208015 
 C279  C    -0.092170      0.002626     -0.208534 
 C280  C     0.034128     -0.090360     -0.290361 
 H281  H     0.097657     -0.103355     -0.187498 
 H282  H    -0.009580     -0.145527     -0.185952 
 C283  C     0.049308      0.065261     -0.296181 
 H284  H     0.027699      0.126203     -0.194507 
 H285  H     0.119013      0.055647     -0.195964 
 C286  C    -0.093175      0.000193     -0.290601 
 H287  H    -0.134209     -0.048952     -0.183777 
 H288  H    -0.118027      0.065384     -0.191505 
 H289  H     0.021155      0.127102     -0.316991 
 H290  H     0.115989      0.061014     -0.318802 
 H291  H     0.101811     -0.096248     -0.310393 
 H292  H    -0.002258     -0.145924     -0.309805 
 H293  H    -0.123370      0.059960     -0.313314 
 N294  N    -0.003447     -0.008180     -0.319810 
 H295  H    -0.132628     -0.055103     -0.306967 
 C296  C     0.315392      0.257700      0.449041 
 C297  C     0.313842      0.311299     -0.493217 
 C298  C     0.247374      0.303638     -0.441204 
 C299  C     0.183376      0.239363     -0.447114 
 C300  C     0.185156      0.185281      0.495269 
 C301  C     0.250769      0.194260      0.442470 
 O302  O     0.246959      0.360618     -0.387533 
 C303  C     0.176697      0.358799     -0.336202 
 C304  C     0.186846      0.435002     -0.288251 
 C305  C     0.181248     -0.474847     -0.326881 
 C306  C     0.186106     -0.398450     -0.277828 
 O307  O     0.251485      0.139592      0.387173 
 C308  C     0.313516      0.154566      0.329907 
 C309  C     0.299773      0.087889      0.274191 
 C310  C     0.317768     -0.007231      0.298708 
 C311  C     0.414385     -0.027217      0.311130 
 H312  H     0.131772      0.231883     -0.406738 
 H313  H     0.367791      0.265004      0.409306 
 H314  H     0.304252      0.221053      0.306877 
 H315  H     0.380211      0.149686      0.349954 
 H316  H     0.113905      0.363332     -0.363181 
 H317  H     0.178508      0.296342     -0.305210 
 H318  H     0.232401      0.093206      0.255783 
 H319  H     0.341773      0.105105      0.227751 
 H320  H     0.136082      0.430264     -0.246249 
 H321  H     0.249573      0.429084     -0.261369 
 H322  H     0.233837     -0.468462     -0.367349 
 H323  H     0.119781     -0.470295     -0.355519 
 H324  H     0.279295     -0.023553      0.347296 
 H325  H     0.293667     -0.050545      0.258789 
 H326  H     0.454022     -0.014770      0.262718 
 H327  H     0.441000      0.012534      0.352219 
 H328  H     0.423402     -0.095969      0.328143 
 H329  H     0.182346     -0.335689     -0.307954 
 H330  H     0.132091     -0.400780     -0.238764 
 H331  H     0.247281     -0.398963     -0.248924 
 C332  C     0.308865     -0.256378     -0.451903 
 C333  C     0.297829     -0.325706     -0.496348 
 C334  C     0.226041     -0.327763      0.458756 
 C335  C     0.169807     -0.256021      0.455290 
 C336  C     0.181588     -0.186245      0.499102 
 C337  C     0.253305     -0.184365     -0.456301 
 O338  O     0.205905     -0.393107      0.414921 
 C339  C     0.213571     -0.482742      0.439893 
 C340  C     0.126461      0.471106      0.432694 
 C341  C     0.055286      0.499926      0.485018 
 C342  C    -0.032710      0.454559      0.476638 
 O343  O     0.272550     -0.116833     -0.414622 
 C344  C     0.287920     -0.032638     -0.449515 
 C345  C     0.371172     -0.032076     -0.495072 
 C346  C     0.454546     -0.053311     -0.454454 
 C347  C    -0.463160     -0.053192      0.498042 
 H348  H     0.114561     -0.257777      0.420250 
 H349  H     0.364208     -0.254060     -0.416920 
 H350  H     0.232390     -0.013211     -0.482195 
 H351  H     0.292126      0.015221     -0.408266 
 H352  H     0.264324      0.486469      0.407497 
 H353  H     0.234002     -0.487982      0.495194 
 H354  H     0.364203     -0.078698      0.463005 
 H355  H     0.378208      0.032649      0.477865 
 H356  H     0.103684      0.481497      0.378327 
 H357  H     0.136515      0.400314      0.440685 
 H358  H     0.077743      0.486483     -0.460962 
 H359  H     0.046698     -0.428953      0.479218 
 H360  H     0.462295     -0.006075     -0.413113 
 H361  H     0.447327     -0.117723     -0.427054 
 H362  H    -0.452819      0.010700      0.470650 
 H363  H    -0.404812     -0.068328     -0.471174 
 H364  H    -0.467693     -0.102216      0.457858 
 H365  H    -0.059172      0.469396      0.424147 
 H366  H    -0.026766      0.383324      0.483555 
 H367  H    -0.081163      0.475832     -0.484193 
 N368  N    -0.496008      0.490367     -0.177479 
 C369  C     0.484802      0.402021     -0.201171 
 C370  C     0.436700     -0.449165     -0.205381 
 C371  C    -0.410206     -0.482145     -0.207994 
 C372  C     0.435318     -0.449707     -0.287469 
 H373  H     0.372593     -0.468404     -0.182174 
 H374  H     0.450323     -0.382891     -0.188511 
 C375  C     0.484886      0.402017     -0.283439 
 H376  H    -0.466404      0.355867     -0.179757 
 H377  H     0.420936      0.380454     -0.178921 
 C378  C    -0.411515     -0.480527     -0.290217 
 H379  H    -0.393886     -0.417047     -0.190027 
 H380  H    -0.359755      0.472767     -0.187635 
 H381  H    -0.465376      0.356842     -0.303269 
 H382  H     0.421488      0.379208     -0.301684 
 H383  H     0.371074     -0.470771     -0.305105 
 H384  H     0.446778     -0.383441     -0.310778 
 H385  H    -0.360103      0.477265     -0.311468 
 N386  N    -0.497388      0.490666     -0.314441 
 H387  H    -0.398233     -0.414057     -0.312231 
 C388  C    -0.273119     -0.304376     -0.444058 
 C389  C    -0.324527     -0.306047      0.495900 
 C390  C    -0.310120     -0.245849      0.438659 
 C391  C    -0.244318     -0.183054      0.443294 
 C392  C    -0.192747     -0.181948     -0.496792 
 C393  C    -0.206003     -0.243446     -0.440642 
 O394  O    -0.360914     -0.249688      0.380279 
 C395  C    -0.345512     -0.189253      0.321255 
 C396  C    -0.403041     -0.215051      0.261434 
 C397  C    -0.390191     -0.157765      0.193396 
 C398  C    -0.446696     -0.186357      0.132956 
 O399  O    -0.157513     -0.244973     -0.381148 
 C400  C    -0.093935     -0.313509     -0.375950 
 C401  C    -0.080677     -0.340440     -0.298578 
 C402  C    -0.163606     -0.375231     -0.259761 
 C403  C    -0.148740     -0.405166     -0.182729 
 H404  H    -0.233166     -0.134767      0.400032 
 H405  H    -0.283312     -0.350467     -0.399154 
 H406  H    -0.114491     -0.369810     -0.405547 
 H407  H    -0.032734     -0.288467     -0.400878 
 H408  H    -0.361070     -0.122829      0.337227 
 H409  H    -0.276346     -0.191234      0.304480 
 H410  H    -0.029713     -0.390901     -0.295450 
 H411  H    -0.055445     -0.284676     -0.270808 
 H412  H    -0.389457     -0.283362      0.249748 
 H413  H    -0.471944     -0.212641      0.278942 
 H414  H    -0.404990     -0.089491      0.204393 
 H415  H    -0.321103     -0.158923      0.176323 
 H416  H    -0.213815     -0.324028     -0.261199 
 H417  H    -0.190242     -0.429705     -0.288304 
 H418  H    -0.124953     -0.351350     -0.152093 
 H419  H    -0.209564     -0.429176     -0.156875 
 H420  H    -0.100683     -0.458123     -0.178872 
 H421  H    -0.432629     -0.253909      0.119777 
 H422  H     0.483436     -0.182261      0.146576 
 H423  H    -0.434526     -0.145379      0.084760 
loop_  
_geom_bond_atom_site_label_1  
_geom_bond_atom_site_label_2  
Cu0   Cu1 
Cu0   O4 
Cu0   O7 
Cu0   O10 
Cu0   O13 
Cu0   N82 
Cu1   O2 
Cu1   O5 
Cu1   O8 
Cu1   O11 
Cu1   N276 
O2   C3 
C3   O4 
C3   C29 
O5   C6 
C6   O7 
C6   C85 
O8   C9 
C9   O10 
C9   C180 
O11   C12 
C12   O13 
C12   C121 
Cu14   Cu15 
Cu14   O18 
Cu14   O21 
Cu14   O24 
Cu14   O27 
Cu14   N174 
Cu15   O16 
Cu15   O19 
Cu15   O22 
Cu15   O25 
Cu15   N368 
O16   C17 
C17   O18 
C17   C124 
O19   C20 
C20   O21 
C20   C177 
O22   C23 
C23   O24 
C23   C88 
O25   C26 
C26   O27 
C26   C32 
C28   C29 
C28   C33 
C28   H45 
C29   C30 
C30   C31 
C30   O34 
C31   C32 
C31   H44 
C32   C33 
C33   O39 
O34   C35 
C35   C36 
C35   H48 
C35   H49 
C36   C37 
C36   H52 
C36   H53 
C37   C38 
C37   H54 
C37   H55 
C38   H61 
C38   H62 
C38   H63 
O39   C40 
C40   C41 
C40   H46 
C40   H47 
C41   C42 
C41   H50 
C41   H51 
C42   C43 
C42   H56 
C42   H57 
C43   H58 
C43   H59 
C43   H60 
N64   C65 
N64   C66 
N64   C67 
N64   Cu213 
C65   C71 
C65   H72 
C65   H73 
C66   C68 
C66   H69 
C66   H70 
C67   C74 
C67   H75 
C67   H76 
C68   H79 
C68   H80 
C68   N82 
C71   H77 
C71   H78 
C71   N82 
C74   H81 
C74   N82 
C74   H83 
C84   C85 
C84   C89 
C84   H101 
C85   C86 
C86   C87 
C86   O90 
C87   C88 
C87   H100 
C88   C89 
C89   O95 
O90   C91 
C91   C92 
C91   H104 
C91   H105 
C92   C93 
C92   H108 
C92   H109 
C93   C94 
C93   H110 
C93   H111 
C94   H117 
C94   H118 
C94   H119 
O95   C96 
C96   C97 
C96   H102 
C96   H103 
C97   C98 
C97   H106 
C97   H107 
C98   C99 
C98   H112 
C98   H113 
C99   H114 
C99   H115 
C99   H116 
C120   C121 
C120   C125 
C120   H137 
C121   C122 
C122   C123 
C122   O126 
C123   C124 
C123   H136 
C124   C125 
C125   O131 
O126   C127 
C127   C128 
C127   H140 
C127   H141 
C128   C129 
C128   H144 
C128   H145 
C129   C130 
C129   H146 
C129   H147 
C130   H153 
C130   H154 
C130   H155 
O131   C132 
C132   C133 
C132   H138 
C132   H139 
C133   C134 
C133   H142 
C133   H143 
C134   C135 
C134   H148 
C134   H149 
C135   H150 
C135   H151 
C135   H152 
N156   C157 
N156   C158 
N156   C159 
N156   Cu227 
C157   C163 
C157   H164 
C157   H165 
C158   C160 
C158   H161 
C158   H162 
C159   C166 
C159   H167 
C159   H168 
C160   H171 
C160   H172 
C160   N174 
C163   H169 
C163   H170 
C163   N174 
C166   H173 
C166   N174 
C166   H175 
C176   C177 
C176   C181 
C176   H193 
C177   C178 
C178   C179 
C178   O182 
C179   C180 
C179   H192 
C180   C181 
C181   O187 
O182   C183 
C183   C184 
C183   H196 
C183   H197 
C184   C185 
C184   H200 
C184   H201 
C185   C186 
C185   H202 
C185   H203 
C186   H209 
C186   H210 
C186   H211 
O187   C188 
C188   C189 
C188   H194 
C188   H195 
C189   C190 
C189   H198 
C189   H199 
C190   C191 
C190   H204 
C190   H205 
C191   H206 
C191   H207 
C191   H208 
Cu212   Cu213 
Cu212   O216 
Cu212   O219 
Cu212   O222 
Cu212   O225 
Cu212   N294 
Cu213   O214 
Cu213   O217 
Cu213   O220 
Cu213   O223 
O214   C215 
C215   O216 
C215   C244 
O217   C218 
C218   O219 
C218   C300 
O220   C221 
C221   O222 
C221   C392 
O223   C224 
C224   O225 
C224   C336 
Cu226   Cu227 
Cu226   O230 
Cu226   O233 
Cu226   O236 
Cu226   O239 
Cu226   N386 
Cu227   O228 
Cu227   O231 
Cu227   O234 
Cu227   O237 
O228   C229 
C229   O230 
C229   C333 
O231   C232 
C232   O233 
C232   C389 
O234   C235 
C235   O236 
C235   C297 
O237   C238 
C238   O239 
C238   C241 
C240   C241 
C240   C245 
C240   H257 
C241   C242 
C242   C243 
C242   O246 
C243   C244 
C243   H256 
C244   C245 
C245   O251 
O246   C247 
C247   C248 
C247   H260 
C247   H261 
C248   C249 
C248   H264 
C248   H265 
C249   C250 
C249   H266 
C249   H267 
C250   H273 
C250   H274 
C250   H275 
O251   C252 
C252   C253 
C252   H258 
C252   H259 
C253   C254 
C253   H262 
C253   H263 
C254   C255 
C254   H268 
C254   H269 
C255   H270 
C255   H271 
C255   H272 
N276   C277 
N276   C278 
N276   C279 
C277   C283 
C277   H284 
C277   H285 
C278   C280 
C278   H281 
C278   H282 
C279   C286 
C279   H287 
C279   H288 
C280   H291 
C280   H292 
C280   N294 
C283   H289 
C283   H290 
C283   N294 
C286   H293 
C286   N294 
C286   H295 
C296   C297 
C296   C301 
C296   H313 
C297   C298 
C298   C299 
C298   O302 
C299   C300 
C299   H312 
C300   C301 
C301   O307 
O302   C303 
C303   C304 
C303   H316 
C303   H317 
C304   C305 
C304   H320 
C304   H321 
C305   C306 
C305   H322 
C305   H323 
C306   H329 
C306   H330 
C306   H331 
O307   C308 
C308   C309 
C308   H314 
C308   H315 
C309   C310 
C309   H318 
C309   H319 
C310   C311 
C310   H324 
C310   H325 
C311   H326 
C311   H327 
C311   H328 
C332   C333 
C332   C337 
C332   H349 
C333   C334 
C334   C335 
C334   O338 
C335   C336 
C335   H348 
C336   C337 
C337   O343 
O338   C339 
C339   C340 
C339   H352 
C339   H353 
C340   C341 
C340   H356 
C340   H357 
C341   C342 
C341   H358 
C341   H359 
C342   H365 
C342   H366 
C342   H367 
O343   C344 
C344   C345 
C344   H350 
C344   H351 
C345   C346 
C345   H354 
C345   H355 
C346   C347 
C346   H360 
C346   H361 
C347   H362 
C347   H363 
C347   H364 
N368   C369 
N368   C370 
N368   C371 
C369   C375 
C369   H376 
C369   H377 
C370   C372 
C370   H373 
C370   H374 
C371   C378 
C371   H379 
C371   H380 
C372   H383 
C372   H384 
C372   N386 
C375   H381 
C375   H382 
C375   N386 
C378   H385 
C378   N386 
C378   H387 
C388   C389 
C388   C393 
C388   H405 
C389   C390 
C390   C391 
C390   O394 
C391   C392 
C391   H404 
C392   C393 
C393   O399 
O394   C395 
C395   C396 
C395   H408 
C395   H409 
C396   C397 
C396   H412 
C396   H413 
C397   C398 
C397   H414 
C397   H415 
C398   H421 
C398   H422 
C398   H423 
O399   C400 
C400   C401 
C400   H406 
C400   H407 
C401   C402 
C401   H410 
C401   H411 
C402   C403 
C402   H416 
C402   H417 
C403   H418 
C403   H419 
C403   H420 
  
#END  
