data_
_symmetry_cell_setting           triclinic 
_symmetry_space_group_name_H-M   'P 1' 
_symmetry_Int_Tables_number      1 
loop_ 
_symmetry_equiv_pos_site_id 
_symmetry_equiv_pos_as_xyz 
1 x,y,z 
_cell_length_a             15.010038        
_cell_length_b             15.821814        
_cell_length_c             18.956048        
_cell_angle_alpha          90.877433        
_cell_angle_beta           88.640014        
_cell_angle_gamma          89.992555        
loop_  
_atom_site_label   
_atom_site_type_symbol  
_atom_site_fract_x  
_atom_site_fract_y  
_atom_site_fract_z 
 Cu0  Cu    -0.014474     -0.001943      0.068128 
 Cu1  Cu    -0.006645     -0.004301     -0.068535 
 O2  O    -0.110400      0.073378     -0.059760 
 C3  C    -0.129635      0.111742     -0.001824 
 O4  O    -0.092381      0.098668      0.056804 
 O5  O     0.075246      0.093942     -0.056556 
 C6  C     0.111891      0.109753      0.002235 
 O7  O     0.093113      0.072686      0.059950 
 O8  O    -0.089624     -0.102727     -0.058752 
 C9  C    -0.133166     -0.114897     -0.001217 
 O10  O    -0.121311     -0.075109      0.056758 
 O11  O     0.095941     -0.082285     -0.057564 
 C12  C     0.105914     -0.120518      0.000430 
 O13  O     0.063135     -0.103821      0.057802 
 Cu14  Cu     0.487840      0.499961      0.064715 
 Cu15  Cu     0.494270      0.495991     -0.072055 
 O16  O     0.414027     -0.403595     -0.064080 
 C17  C     0.373153     -0.385812     -0.006057 
 O18  O     0.384022     -0.423510      0.052083 
 O19  O    -0.400657     -0.428098     -0.060094 
 C20  C    -0.388518     -0.388443     -0.002121 
 O21  O    -0.432405     -0.400207      0.055234 
 O22  O     0.388497      0.420230     -0.062128 
 C23  C     0.370981      0.383231     -0.004219 
 O24  O     0.407755      0.400086      0.054345 
 O25  O    -0.425716      0.396818     -0.059661 
 C26  C    -0.388428      0.383985     -0.001037 
 O27  O    -0.406625      0.423948      0.056408 
 C28  C    -0.321439      0.254034     -0.055058 
 C29  C    -0.319822      0.314537     -0.000301 
 C30  C    -0.257639      0.308489      0.053801 
 C31  C    -0.198831      0.239526      0.053177 
 C32  C    -0.199914      0.179525     -0.001821 
 C33  C    -0.262595      0.184993     -0.055512 
 O34  O    -0.257098      0.371158      0.104689 
 C35  C    -0.193562      0.373826      0.160330 
 C36  C    -0.109371      0.422704      0.139273 
 C37  C    -0.045794      0.377814      0.085975 
 C38  C     0.038520      0.428940      0.068678 
 O39  O    -0.263308      0.121934     -0.106065 
 C40  C    -0.335560      0.114240     -0.154055 
 C41  C    -0.312881      0.160549     -0.222076 
 C42  C    -0.388624      0.158360     -0.275240 
 C43  C    -0.362528      0.196735     -0.346611 
 H44  H    -0.150265      0.233290      0.094692 
 H45  H    -0.369475      0.260189     -0.097024 
 H46  H    -0.344506      0.046222     -0.164868 
 H47  H    -0.398379      0.136939     -0.129310 
 H48  H    -0.227528      0.406563      0.205028 
 H49  H    -0.178004      0.309976      0.178696 
 H50  H    -0.295656      0.226835     -0.210137 
 H51  H    -0.252674      0.131922     -0.246756 
 H52  H    -0.129098      0.484151      0.117908 
 H53  H    -0.072283      0.437299      0.187370 
 H54  H    -0.026196      0.316096      0.106798 
 H55  H    -0.080969      0.364502      0.036772 
 H56  H    -0.410320      0.092557     -0.283592 
 H57  H    -0.446749      0.192429     -0.252445 
 H58  H    -0.341331      0.262906     -0.340645 
 H59  H    -0.307182      0.161694     -0.372414 
 H60  H    -0.418653      0.195493     -0.382845 
 H61  H     0.082499      0.394138      0.031230 
 H62  H     0.022024      0.489628      0.044720 
 H63  H     0.076886      0.442224      0.116256 
 N64  N    -0.005632     -0.001935      0.318282 
 C65  C    -0.077369     -0.058708      0.293797 
 C66  C    -0.022794      0.083945      0.291634 
 C67  C     0.079972     -0.032376      0.287126 
 C68  C    -0.025244      0.082809      0.209379 
 H69  H    -0.086735      0.107291      0.314183 
 H70  H     0.029274      0.127438      0.310374 
 C71  C    -0.081494     -0.059051      0.211554 
 H72  H    -0.064782     -0.123131      0.312638 
 H73  H    -0.141428     -0.037957      0.318021 
 C74  C     0.076056     -0.034727      0.204958 
 H75  H     0.134117      0.009484      0.304776 
 H76  H     0.094316     -0.095950      0.307118 
 H77  H    -0.072837     -0.123648      0.189830 
 H78  H    -0.147022     -0.036751      0.194534 
 H79  H    -0.089873      0.106764      0.191677 
 H80  H     0.026619      0.124676      0.187042 
 H81  H     0.086950     -0.099781      0.184932 
 N82  N    -0.011284     -0.004076      0.181187 
 H83  H     0.129212      0.004541      0.181445 
 C84  C     0.180544      0.235147     -0.054596 
 C85  C     0.180736      0.179135      0.001999 
 C86  C     0.243703      0.188763      0.055365 
 C87  C     0.303297      0.257253      0.052933 
 C88  C     0.302880      0.313279     -0.003626 
 C89  C     0.240609      0.302924     -0.057292 
 O90  O     0.246049      0.130517      0.108111 
 C91  C     0.326726      0.121863      0.146698 
 C92  C     0.327684      0.035356      0.180852 
 C93  C     0.323229     -0.038362      0.127136 
 C94  C     0.328560     -0.125805      0.160448 
 O95  O     0.240237      0.355435     -0.113922 
 C96  C     0.158263      0.398654     -0.127237 
 C97  C     0.154436      0.418936     -0.205452 
 C98  C     0.156556      0.340456     -0.254437 
 C99  C     0.150353      0.361611     -0.332893 
 H100  H     0.351101      0.266115      0.094931 
 H101  H     0.133995      0.226827     -0.097511 
 H102  H     0.099902      0.361035     -0.110675 
 H103  H     0.157418      0.457161     -0.094923 
 H104  H     0.385123      0.128382      0.110786 
 H105  H     0.329285      0.172632      0.187058 
 H106  H     0.093163      0.455073     -0.214587 
 H107  H     0.210228      0.460984     -0.219797 
 H108  H     0.388690      0.029446      0.211558 
 H109  H     0.271738      0.030784      0.219209 
 H110  H     0.261054     -0.033944      0.097593 
 H111  H     0.377785     -0.031799      0.087789 
 H112  H     0.218339      0.304673     -0.246262 
 H113  H     0.101420      0.297961     -0.239437 
 H114  H     0.206518      0.401246     -0.350561 
 H115  H     0.151521      0.303810     -0.365877 
 H116  H     0.088424      0.395624     -0.343674 
 H117  H     0.325437     -0.176017      0.119877 
 H118  H     0.391282     -0.133855      0.188197 
 H119  H     0.273081     -0.135969      0.198249 
 C120  C     0.239389     -0.316595      0.047632 
 C121  C     0.307080     -0.314386     -0.004487 
 C122  C     0.310123     -0.248411     -0.053465 
 C123  C     0.242501     -0.187461     -0.051717 
 C124  C     0.174597     -0.189760      0.000211 
 C125  C     0.172019     -0.254866      0.049895 
 O126  O     0.374020     -0.240447     -0.105655 
 C127  C     0.462887     -0.220590     -0.083815 
 C128  C     0.468905     -0.130234     -0.055061 
 C129  C     0.446008     -0.061147     -0.107841 
 C130  C     0.446524      0.027964     -0.074712 
 O131  O     0.103081     -0.256257      0.098678 
 C132  C     0.089765     -0.330257      0.140377 
 C133  C     0.002028     -0.322374      0.181978 
 C134  C    -0.079991     -0.312033      0.135789 
 C135  C    -0.168251     -0.311281      0.178257 
 H136  H     0.245065     -0.137538     -0.090824 
 H137  H     0.238208     -0.367670      0.085754 
 H138  H     0.088850     -0.386542      0.105450 
 H139  H     0.145710     -0.336450      0.176551 
 H140  H     0.484044     -0.265409     -0.043686 
 H141  H    -0.492147     -0.229704     -0.130025 
 H142  H    -0.006827     -0.379045      0.214393 
 H143  H     0.005744     -0.268339      0.219145 
 H144  H     0.425051     -0.123687     -0.007893 
 H145  H    -0.462797     -0.119357     -0.037009 
 H146  H     0.493753     -0.064055     -0.152814 
 H147  H     0.380027     -0.073827     -0.129787 
 H148  H    -0.073766     -0.252902      0.106092 
 H149  H    -0.081284     -0.363286      0.095856 
 H150  H    -0.225035     -0.303546      0.143414 
 H151  H    -0.178416     -0.370617      0.206707 
 H152  H    -0.170505     -0.259000      0.217094 
 H153  H    -0.488532      0.042923     -0.052016 
 H154  H     0.432397      0.076290     -0.113956 
 H155  H     0.395656      0.034296     -0.032260 
 N156  N    -0.493403      0.499218      0.314566 
 C157  C     0.429320     -0.451417      0.290886 
 C158  C    -0.411345     -0.463284      0.283775 
 C159  C     0.498492      0.411641      0.286764 
 C160  C    -0.416888     -0.460248      0.201760 
 H161  H    -0.401986     -0.399195      0.306055 
 H162  H    -0.353651      0.498747      0.299505 
 C163  C     0.423349     -0.455150      0.208847 
 H164  H     0.367806     -0.475739      0.316187 
 H165  H     0.436759     -0.385344      0.309046 
 C166  C     0.498426      0.410921      0.204456 
 H167  H    -0.446155      0.372981      0.305841 
 H168  H     0.436385      0.383617      0.308069 
 H169  H     0.361465     -0.487036      0.192887 
 H170  H     0.421527     -0.390795      0.187307 
 H171  H    -0.416628     -0.394034      0.184418 
 H172  H    -0.358530     -0.491168      0.176091 
 H173  H     0.438885      0.377984      0.185039 
 N174  N    -0.499512      0.498318      0.177609 
 H175  H    -0.443157      0.376175      0.182735 
 C176  C    -0.181370     -0.257178     -0.041853 
 C177  C    -0.201602     -0.184112     -0.001994 
 C178  C    -0.281731     -0.177251      0.037554 
 C179  C    -0.340105     -0.246595      0.039360 
 C180  C    -0.320121     -0.319358     -0.000953 
 C181  C    -0.240548     -0.325924     -0.041009 
 O182  O    -0.300105     -0.101451      0.070924 
 C183  C    -0.380984     -0.090807      0.112004 
 C184  C    -0.396256      0.003079      0.126768 
 C185  C    -0.319664      0.048046      0.164413 
 C186  C    -0.339968      0.141127      0.181961 
 O187  O    -0.223660     -0.400933     -0.075982 
 C188  C    -0.147894     -0.407294     -0.123092 
 C189  C    -0.144338     -0.495890     -0.155625 
 C190  C    -0.123146      0.434433     -0.102981 
 C191  C    -0.115647      0.346248     -0.137402 
 H192  H    -0.402193     -0.243567      0.070521 
 H193  H    -0.118449     -0.260882     -0.071924 
 H194  H    -0.154407     -0.359464     -0.164282 
 H195  H    -0.086654     -0.394222     -0.093899 
 H196  H    -0.438079     -0.116596      0.083365 
 H197  H    -0.374944     -0.126040      0.161326 
 H198  H    -0.208730      0.489913     -0.179843 
 H199  H    -0.093955     -0.497354     -0.198820 
 H200  H    -0.407806      0.034886      0.076458 
 H201  H    -0.458097      0.010876      0.158605 
 H202  H    -0.304701      0.014359      0.213091 
 H203  H    -0.258895      0.044194      0.130699 
 H204  H    -0.060417      0.449828     -0.076742 
 H205  H    -0.175250      0.433743     -0.061043 
 H206  H    -0.063090      0.343980     -0.178739 
 H207  H    -0.099711      0.298321     -0.098237 
 H208  H    -0.178588      0.327458     -0.161603 
 H209  H    -0.352505      0.176739      0.133841 
 H210  H    -0.399234      0.147715      0.216738 
 H211  H    -0.283808      0.171536      0.208503 
 Cu212  Cu     0.003653      0.007435     -0.431795 
 Cu213  Cu     0.008836     -0.001504      0.431473 
 O214  O    -0.097435      0.074210      0.440811 
 C215  C    -0.114204      0.116296      0.497472 
 O216  O    -0.075343      0.106545     -0.444175 
 O217  O     0.089394      0.098850      0.438569 
 C218  C     0.127563      0.116553      0.496375 
 O219  O     0.108587      0.083678     -0.444205 
 O220  O    -0.070659     -0.100961      0.444530 
 C221  C    -0.113610     -0.111757     -0.497458 
 O222  O    -0.101994     -0.069093     -0.440897 
 O223  O     0.114111     -0.077107      0.443665 
 C224  C     0.126106     -0.112174     -0.497159 
 O225  O     0.084232     -0.092962     -0.439924 
 Cu226  Cu    -0.494529     -0.496806     -0.436152 
 Cu227  Cu    -0.488883     -0.498580      0.427230 
 O228  O     0.434214     -0.396074      0.439539 
 C229  C     0.393150     -0.378491      0.497479 
 O230  O     0.402971     -0.417682     -0.444883 
 O231  O    -0.381391     -0.425802      0.438033 
 C232  C    -0.369582     -0.385723      0.495879 
 O233  O    -0.412962     -0.398106     -0.446537 
 O234  O     0.403253      0.428056      0.436494 
 C235  C     0.386427      0.389200      0.493687 
 O236  O     0.423898      0.404161     -0.447720 
 O237  O    -0.412060      0.399519      0.435643 
 C238  C    -0.372839      0.387194      0.493542 
 O239  O    -0.389937      0.426075     -0.448338 
 C240  C    -0.316975      0.247531      0.450721 
 C241  C    -0.302878      0.319332      0.492970 
 C242  C    -0.227282      0.326152     -0.465100 
 C243  C    -0.168388      0.257442     -0.462284 
 C244  C    -0.182702      0.185337      0.495691 
 C245  C    -0.257220      0.179254      0.452377 
 O246  O    -0.213818      0.401327     -0.430108 
 C247  C    -0.131492      0.416498     -0.395182 
 C248  C    -0.121488     -0.488690     -0.382286 
 C249  C    -0.202766     -0.446526     -0.345657 
 C250  C    -0.187744     -0.353071     -0.327000 
 O251  O    -0.268638      0.105784      0.414176 
 C252  C    -0.348863      0.092199      0.375877 
 C253  C    -0.426058      0.070271      0.426262 
 C254  C     0.482966      0.064309      0.390810 
 C255  C     0.446926      0.149257      0.365630 
 H256  H    -0.110355      0.260660     -0.428668 
 H257  H    -0.376180      0.244457      0.418347 
 H258  H    -0.362696      0.147695      0.343628 
 H259  H    -0.335803      0.039042      0.338911 
 H260  H    -0.132598      0.381905     -0.345140 
 H261  H    -0.074954      0.393073     -0.428093 
 H262  H    -0.411270      0.009342      0.450874 
 H263  H    -0.430995      0.116606      0.470158 
 H264  H    -0.061898     -0.477104     -0.350739 
 H265  H    -0.108843     -0.457708     -0.433252 
 H266  H    -0.260206     -0.451972     -0.380555 
 H267  H    -0.221135     -0.481289     -0.297686 
 H268  H     0.487649      0.019370      0.345962 
 H269  H     0.434515      0.037068      0.428563 
 H270  H     0.380432      0.141733      0.343272 
 H271  H     0.440681      0.195297      0.409530 
 H272  H     0.490369      0.177221      0.324805 
 H273  H    -0.132895     -0.345027     -0.290213 
 H274  H    -0.171209     -0.316422     -0.374335 
 H275  H    -0.247736     -0.324782     -0.302122 
 N276  N     0.000901      0.011805     -0.181087 
 C277  C    -0.063669     -0.049146     -0.210298 
 C278  C    -0.021706      0.097255     -0.206186 
 C279  C     0.090898     -0.010337     -0.209068 
 C280  C    -0.018936      0.099257     -0.288606 
 H281  H    -0.088517      0.115039     -0.185589 
 H282  H     0.025373      0.143489     -0.184016 
 C283  C    -0.061729     -0.046573     -0.292481 
 H284  H    -0.047436     -0.113266     -0.192458 
 H285  H    -0.130852     -0.033765     -0.188992 
 C286  C     0.093323     -0.008355     -0.291379 
 H287  H     0.139762      0.034311     -0.187032 
 H288  H     0.109202     -0.073681     -0.190754 
 H289  H    -0.046106     -0.109628     -0.315127 
 H290  H    -0.127693     -0.028409     -0.311725 
 H291  H    -0.084312      0.118188     -0.308538 
 H292  H     0.029915      0.146083     -0.307990 
 H293  H     0.113222     -0.070556     -0.313427 
 N294  N     0.005046      0.015063     -0.318264 
 H295  H     0.143161      0.037540     -0.310583 
 C296  C     0.327498      0.254385     -0.457719 
 C297  C     0.319309      0.318402      0.492519 
 C298  C     0.251018      0.314776      0.442972 
 C299  C     0.192330      0.245518      0.443026 
 C300  C     0.199981      0.182186      0.493385 
 C301  C     0.270139      0.184621     -0.458592 
 O302  O     0.243384      0.379989      0.396668 
 C303  C     0.163027      0.388323      0.357808 
 C304  C     0.161737      0.475227      0.324357 
 C305  C     0.163884     -0.451297      0.378433 
 C306  C     0.157435     -0.363903      0.345099 
 O307  O     0.286154      0.124243     -0.409526 
 C308  C     0.296803      0.038488     -0.434583 
 C309  C     0.375235     -0.002718     -0.398629 
 C310  C     0.359782     -0.021693     -0.319770 
 C311  C     0.348518      0.056566     -0.271469 
 H312  H     0.138420      0.242456      0.405372 
 H313  H     0.380229      0.255832     -0.419025 
 H314  H     0.235420      0.003095     -0.422476 
 H315  H     0.306895      0.037206     -0.492357 
 H316  H     0.161145      0.338109      0.316926 
 H317  H     0.104668      0.380806      0.393582 
 H318  H     0.390614     -0.062660     -0.426708 
 H319  H     0.434955      0.037157     -0.405277 
 H320  H     0.218728      0.480828      0.287049 
 H321  H     0.101512      0.480646      0.292661 
 H322  H     0.108964     -0.458803      0.417393 
 H323  H     0.225815     -0.454784      0.408385 
 H324  H     0.300839     -0.062668     -0.313788 
 H325  H     0.416326     -0.059267     -0.301606 
 H326  H     0.339870      0.038300     -0.216054 
 H327  H     0.406983      0.098198     -0.275160 
 H328  H     0.289762      0.094019     -0.284604 
 H329  H     0.213736     -0.352514      0.308330 
 H330  H     0.095439     -0.357086      0.316111 
 H331  H     0.158163     -0.313702      0.385796 
 C332  C     0.260453     -0.182020      0.449053 
 C333  C     0.196731     -0.179877     -0.495717 
 C334  C     0.199252     -0.239844     -0.441779 
 C335  C     0.264568     -0.303472     -0.445086 
 C336  C     0.327351     -0.306470      0.499080 
 C337  C     0.327313     -0.244273      0.446832 
 O338  O     0.136513     -0.234931     -0.388155 
 C339  C     0.138189     -0.294584     -0.332013 
 C340  C     0.065467     -0.269160     -0.278618 
 C341  C     0.052600     -0.330607     -0.217221 
 C342  C     0.134733     -0.340416     -0.171422 
 O343  O     0.392545     -0.246595      0.394939 
 C344  C     0.408430     -0.172408      0.353993 
 C345  C     0.494473     -0.183080      0.310448 
 C346  C    -0.422569     -0.198117      0.354631 
 C347  C    -0.335696     -0.200718      0.310385 
 H348  H     0.265657     -0.351879     -0.404660 
 H349  H     0.257908     -0.135116      0.407486 
 H350  H     0.351753     -0.162946      0.319096 
 H351  H     0.412989     -0.117071      0.389728 
 H352  H     0.126298     -0.358676     -0.353387 
 H353  H     0.204108     -0.293081     -0.307634 
 H354  H     0.487070     -0.236019      0.272607 
 H355  H    -0.494867     -0.126150      0.278626 
 H356  H     0.080599     -0.205964     -0.256996 
 H357  H     0.002002     -0.262892     -0.306127 
 H358  H    -0.003360     -0.307564     -0.183634 
 H359  H     0.032305     -0.392856     -0.238018 
 H360  H    -0.417847     -0.148326      0.395606 
 H361  H    -0.430373     -0.258014      0.383052 
 H362  H    -0.323611     -0.140574      0.283572 
 H363  H    -0.278251     -0.212474      0.343738 
 H364  H    -0.337093     -0.251241      0.269993 
 H365  H     0.120648     -0.382028     -0.126614 
 H366  H     0.191745     -0.367460     -0.201381 
 H367  H     0.155568     -0.279004     -0.149619 
 N368  N     0.497624      0.497238     -0.185521 
 C369  C     0.407067      0.485194     -0.213171 
 C370  C    -0.467253     -0.421045     -0.211162 
 C371  C    -0.444690      0.428693     -0.214527 
 C372  C    -0.464908     -0.419738     -0.293448 
 H373  H     0.490633     -0.369352     -0.189450 
 H374  H    -0.399758     -0.410996     -0.190863 
 C375  C     0.409229      0.487048     -0.295477 
 H376  H     0.380499      0.424191     -0.194823 
 H377  H     0.362619     -0.465113     -0.190959 
 C378  C    -0.442534      0.429961     -0.296877 
 H379  H    -0.376983      0.436549     -0.193976 
 H380  H    -0.469862      0.367455     -0.195399 
 H381  H     0.382616      0.427497     -0.317406 
 H382  H     0.366610     -0.461632     -0.314362 
 H383  H     0.494359     -0.367280     -0.312825 
 H384  H    -0.396296     -0.409339     -0.313417 
 H385  H    -0.466806      0.369494     -0.318875 
 N386  N    -0.498524      0.499471     -0.322712 
 H387  H    -0.373594      0.438157     -0.316992 
 C388  C    -0.163023     -0.251765      0.458344 
 C389  C    -0.181001     -0.182102     -0.497090 
 C390  C    -0.259508     -0.178586     -0.455163 
 C391  C    -0.319816     -0.246328     -0.458467 
 C392  C    -0.301655     -0.316031      0.497102 
 C393  C    -0.222941     -0.319829      0.455624 
 O394  O    -0.274052     -0.108014     -0.413514 
 C395  C    -0.357984     -0.094243     -0.377008 
 C396  C    -0.364360     -0.141951     -0.307520 
 C397  C    -0.286440     -0.124336     -0.258335 
 C398  C    -0.297357     -0.165119     -0.185784 
 O399  O    -0.207152     -0.390803      0.414806 
 C400  C    -0.124918     -0.397855      0.375056 
 C401  C    -0.121245     -0.483973      0.338134 
 C402  C    -0.119259      0.441309      0.388964 
 C403  C    -0.113030      0.354861      0.351392 
 H404  H    -0.381839     -0.244841     -0.427193 
 H405  H    -0.101584     -0.253084      0.426289 
 H406  H    -0.121505     -0.346892      0.336111 
 H407  H    -0.068453     -0.390503      0.410786 
 H408  H    -0.362815     -0.025691     -0.366666 
 H409  H    -0.413224     -0.110798     -0.411895 
 H410  H    -0.179087     -0.490619      0.303796 
 H411  H    -0.061689     -0.486673      0.303163 
 H412  H    -0.427278     -0.124416     -0.280002 
 H413  H    -0.368383     -0.210535     -0.317538 
 H414  H    -0.224457     -0.147675     -0.284069 
 H415  H    -0.278305     -0.055583     -0.251483 
 H416  H    -0.062655      0.448895      0.424413 
 H417  H    -0.179676      0.443231      0.423108 
 H418  H    -0.109183      0.303629      0.389717 
 H419  H    -0.171916      0.342804      0.319409 
 H420  H    -0.053627      0.350350      0.316524 
 H421  H    -0.303583     -0.234208     -0.190305 
 H422  H    -0.239545     -0.151410     -0.153000 
 H423  H    -0.356644     -0.140990     -0.156983 
loop_  
_geom_bond_atom_site_label_1  
_geom_bond_atom_site_label_2  
Cu0   Cu1 
Cu0   O4 
Cu0   O7 
Cu0   O10 
Cu0   O13 
Cu0   N82 
Cu1   O2 
Cu1   O5 
Cu1   O8 
Cu1   O11 
Cu1   N276 
O2   C3 
C3   O4 
C3   C32 
O5   C6 
C6   O7 
C6   C85 
O8   C9 
C9   O10 
C9   C177 
O11   C12 
C12   O13 
C12   C124 
Cu14   Cu15 
Cu14   O18 
Cu14   O21 
Cu14   O24 
Cu14   O27 
Cu14   N174 
Cu15   O16 
Cu15   O19 
Cu15   O22 
Cu15   O25 
Cu15   N368 
O16   C17 
C17   O18 
C17   C121 
O19   C20 
C20   O21 
C20   C180 
O22   C23 
C23   O24 
C23   C88 
O25   C26 
C26   O27 
C26   C29 
C28   C29 
C28   C33 
C28   H45 
C29   C30 
C30   C31 
C30   O34 
C31   C32 
C31   H44 
C32   C33 
C33   O39 
O34   C35 
C35   C36 
C35   H48 
C35   H49 
C36   C37 
C36   H52 
C36   H53 
C37   C38 
C37   H54 
C37   H55 
C38   H61 
C38   H62 
C38   H63 
O39   C40 
C40   C41 
C40   H46 
C40   H47 
C41   C42 
C41   H50 
C41   H51 
C42   C43 
C42   H56 
C42   H57 
C43   H58 
C43   H59 
C43   H60 
N64   C65 
N64   C66 
N64   C67 
N64   Cu213 
C65   C71 
C65   H72 
C65   H73 
C66   C68 
C66   H69 
C66   H70 
C67   C74 
C67   H75 
C67   H76 
C68   H79 
C68   H80 
C68   N82 
C71   H77 
C71   H78 
C71   N82 
C74   H81 
C74   N82 
C74   H83 
C84   C85 
C84   C89 
C84   H101 
C85   C86 
C86   C87 
C86   O90 
C87   C88 
C87   H100 
C88   C89 
C89   O95 
O90   C91 
C91   C92 
C91   H104 
C91   H105 
C92   C93 
C92   H108 
C92   H109 
C93   C94 
C93   H110 
C93   H111 
C94   H117 
C94   H118 
C94   H119 
O95   C96 
C96   C97 
C96   H102 
C96   H103 
C97   C98 
C97   H106 
C97   H107 
C98   C99 
C98   H112 
C98   H113 
C99   H114 
C99   H115 
C99   H116 
C120   C121 
C120   C125 
C120   H137 
C121   C122 
C122   C123 
C122   O126 
C123   C124 
C123   H136 
C124   C125 
C125   O131 
O126   C127 
C127   C128 
C127   H140 
C127   H141 
C128   C129 
C128   H144 
C128   H145 
C129   C130 
C129   H146 
C129   H147 
C130   H153 
C130   H154 
C130   H155 
O131   C132 
C132   C133 
C132   H138 
C132   H139 
C133   C134 
C133   H142 
C133   H143 
C134   C135 
C134   H148 
C134   H149 
C135   H150 
C135   H151 
C135   H152 
N156   C157 
N156   C158 
N156   C159 
N156   Cu227 
C157   C163 
C157   H164 
C157   H165 
C158   C160 
C158   H161 
C158   H162 
C159   C166 
C159   H167 
C159   H168 
C160   H171 
C160   H172 
C160   N174 
C163   H169 
C163   H170 
C163   N174 
C166   H173 
C166   N174 
C166   H175 
C176   C177 
C176   C181 
C176   H193 
C177   C178 
C178   C179 
C178   O182 
C179   C180 
C179   H192 
C180   C181 
C181   O187 
O182   C183 
C183   C184 
C183   H196 
C183   H197 
C184   C185 
C184   H200 
C184   H201 
C185   C186 
C185   H202 
C185   H203 
C186   H209 
C186   H210 
C186   H211 
O187   C188 
C188   C189 
C188   H194 
C188   H195 
C189   C190 
C189   H198 
C189   H199 
C190   C191 
C190   H204 
C190   H205 
C191   H206 
C191   H207 
C191   H208 
Cu212   Cu213 
Cu212   O216 
Cu212   O219 
Cu212   O222 
Cu212   O225 
Cu212   N294 
Cu213   O214 
Cu213   O217 
Cu213   O220 
Cu213   O223 
O214   C215 
C215   O216 
C215   C244 
O217   C218 
C218   O219 
C218   C300 
O220   C221 
C221   O222 
C221   C389 
O223   C224 
C224   O225 
C224   C333 
Cu226   Cu227 
Cu226   O230 
Cu226   O233 
Cu226   O236 
Cu226   O239 
Cu226   N386 
Cu227   O228 
Cu227   O231 
Cu227   O234 
Cu227   O237 
O228   C229 
C229   O230 
C229   C336 
O231   C232 
C232   O233 
C232   C392 
O234   C235 
C235   O236 
C235   C297 
O237   C238 
C238   O239 
C238   C241 
C240   C241 
C240   C245 
C240   H257 
C241   C242 
C242   C243 
C242   O246 
C243   C244 
C243   H256 
C244   C245 
C245   O251 
O246   C247 
C247   C248 
C247   H260 
C247   H261 
C248   C249 
C248   H264 
C248   H265 
C249   C250 
C249   H266 
C249   H267 
C250   H273 
C250   H274 
C250   H275 
O251   C252 
C252   C253 
C252   H258 
C252   H259 
C253   C254 
C253   H262 
C253   H263 
C254   C255 
C254   H268 
C254   H269 
C255   H270 
C255   H271 
C255   H272 
N276   C277 
N276   C278 
N276   C279 
C277   C283 
C277   H284 
C277   H285 
C278   C280 
C278   H281 
C278   H282 
C279   C286 
C279   H287 
C279   H288 
C280   H291 
C280   H292 
C280   N294 
C283   H289 
C283   H290 
C283   N294 
C286   H293 
C286   N294 
C286   H295 
C296   C297 
C296   C301 
C296   H313 
C297   C298 
C298   C299 
C298   O302 
C299   C300 
C299   H312 
C300   C301 
C301   O307 
O302   C303 
C303   C304 
C303   H316 
C303   H317 
C304   C305 
C304   H320 
C304   H321 
C305   C306 
C305   H322 
C305   H323 
C306   H329 
C306   H330 
C306   H331 
O307   C308 
C308   C309 
C308   H314 
C308   H315 
C309   C310 
C309   H318 
C309   H319 
C310   C311 
C310   H324 
C310   H325 
C311   H326 
C311   H327 
C311   H328 
C332   C333 
C332   C337 
C332   H349 
C333   C334 
C334   C335 
C334   O338 
C335   C336 
C335   H348 
C336   C337 
C337   O343 
O338   C339 
C339   C340 
C339   H352 
C339   H353 
C340   C341 
C340   H356 
C340   H357 
C341   C342 
C341   H358 
C341   H359 
C342   H365 
C342   H366 
C342   H367 
O343   C344 
C344   C345 
C344   H350 
C344   H351 
C345   C346 
C345   H354 
C345   H355 
C346   C347 
C346   H360 
C346   H361 
C347   H362 
C347   H363 
C347   H364 
N368   C369 
N368   C370 
N368   C371 
C369   C375 
C369   H376 
C369   H377 
C370   C372 
C370   H373 
C370   H374 
C371   C378 
C371   H379 
C371   H380 
C372   H383 
C372   H384 
C372   N386 
C375   H381 
C375   H382 
C375   N386 
C378   H385 
C378   N386 
C378   H387 
C388   C389 
C388   C393 
C388   H405 
C389   C390 
C390   C391 
C390   O394 
C391   C392 
C391   H404 
C392   C393 
C393   O399 
O394   C395 
C395   C396 
C395   H408 
C395   H409 
C396   C397 
C396   H412 
C396   H413 
C397   C398 
C397   H414 
C397   H415 
C398   H421 
C398   H422 
C398   H423 
O399   C400 
C400   C401 
C400   H406 
C400   H407 
C401   C402 
C401   H410 
C401   H411 
C402   C403 
C402   H416 
C402   H417 
C403   H418 
C403   H419 
C403   H420 
  
#END  
