data_
_symmetry_cell_setting           triclinic 
_symmetry_space_group_name_H-M   'P 1' 
_symmetry_Int_Tables_number      1 
loop_ 
_symmetry_equiv_pos_site_id 
_symmetry_equiv_pos_as_xyz 
1 x,y,z 
_cell_length_a             15.260649        
_cell_length_b             15.610325        
_cell_length_c             19.086173        
_cell_angle_alpha          91.540247        
_cell_angle_beta           92.223876        
_cell_angle_gamma          89.846758        
loop_  
_atom_site_label   
_atom_site_type_symbol  
_atom_site_fract_x  
_atom_site_fract_y  
_atom_site_fract_z 
 Cu0  Cu     0.003511      0.002647      0.066337 
 Cu1  Cu    -0.001332      0.002385     -0.070087 
 O2  O    -0.077733      0.104090     -0.062441 
 C3  C    -0.113066      0.122140     -0.004608 
 O4  O    -0.093348      0.087908      0.053901 
 O5  O     0.103922      0.078669     -0.053574 
 C6  C     0.123518      0.115643      0.005403 
 O7  O     0.090043      0.097304      0.063226 
 O8  O    -0.107691     -0.072123     -0.062447 
 C9  C    -0.122510     -0.108149     -0.004911 
 O10  O    -0.082744     -0.091602      0.053798 
 O11  O     0.075668     -0.099969     -0.065071 
 C12  C     0.113947     -0.118811     -0.007189 
 O13  O     0.098342     -0.083756      0.052282 
 Cu14  Cu    -0.494186     -0.495573      0.068750 
 Cu15  Cu     0.499859     -0.497232     -0.067767 
 O16  O     0.403493     -0.412441     -0.053667 
 C17  C     0.388399     -0.376684      0.005654 
 O18  O     0.427831     -0.394253      0.063361 
 O19  O    -0.416409     -0.400987     -0.058123 
 C20  C    -0.375295     -0.384022     -0.000141 
 O21  O    -0.388325     -0.420003      0.057774 
 O22  O     0.415573      0.406652     -0.063831 
 C23  C     0.382045      0.388777     -0.005942 
 O24  O     0.401229      0.426662      0.052749 
 O25  O    -0.401320      0.419262     -0.054155 
 C26  C    -0.382457      0.384550      0.004335 
 O27  O    -0.417511      0.403255      0.062102 
 C28  C    -0.289231      0.283391     -0.061320 
 C29  C    -0.312603      0.316746      0.004106 
 C30  C    -0.270586      0.286984      0.065769 
 C31  C    -0.207550      0.222061      0.061432 
 C32  C    -0.183931      0.188967     -0.004039 
 C33  C    -0.226216      0.218548     -0.065566 
 O34  O    -0.289523      0.317038      0.131228 
 C35  C    -0.220060      0.363473      0.168256 
 C36  C    -0.217613      0.341236      0.245382 
 C37  C    -0.158285      0.401553      0.290931 
 C38  C    -0.162866      0.385882      0.369605 
 O39  O    -0.207750      0.188538     -0.131033 
 C40  C    -0.275029      0.136251     -0.164836 
 C41  C    -0.280341      0.154828     -0.242726 
 C42  C    -0.336911      0.090149     -0.286296 
 C43  C    -0.332426      0.102341     -0.365504 
 H44  H    -0.176787      0.199047      0.109980 
 H45  H    -0.320043      0.306078     -0.109955 
 H46  H    -0.256977      0.068957     -0.155894 
 H47  H    -0.338934      0.147742     -0.141230 
 H48  H    -0.156141      0.349954      0.145327 
 H49  H    -0.233690      0.432196      0.162063 
 H50  H    -0.306664      0.219881     -0.250196 
 H51  H    -0.214019      0.155387     -0.263195 
 H52  H    -0.284323      0.343316      0.265156 
 H53  H    -0.194947      0.274644      0.251241 
 H54  H    -0.090075      0.394574      0.274795 
 H55  H    -0.176940      0.468503      0.281084 
 H56  H    -0.315504      0.024576     -0.274156 
 H57  H    -0.405469      0.095376     -0.270651 
 H58  H    -0.374903      0.056490     -0.395160 
 H59  H    -0.353046      0.167105     -0.380298 
 H60  H    -0.265351      0.092424     -0.383169 
 H61  H    -0.118342      0.428693      0.400466 
 H62  H    -0.229388      0.397616      0.387830 
 H63  H    -0.144776      0.319694      0.382118 
 N64  N     0.002798     -0.003150      0.318220 
 C65  C    -0.040023     -0.081647      0.288352 
 C66  C    -0.045410      0.071818      0.290406 
 C67  C     0.093372     -0.000819      0.293103 
 C68  C    -0.045636      0.071131      0.208460 
 H69  H    -0.113181      0.070781      0.308457 
 H70  H    -0.014867      0.130880      0.312749 
 C71  C    -0.040793     -0.082205      0.206270 
 H72  H    -0.005014     -0.138214      0.308798 
 H73  H    -0.107520     -0.084784      0.306797 
 C74  C     0.093018     -0.002250      0.211115 
 H75  H     0.126220      0.057437      0.314654 
 H76  H     0.130581     -0.055738      0.314121 
 H77  H    -0.006799     -0.139370      0.185484 
 H78  H    -0.108763     -0.084960      0.184463 
 H79  H    -0.113545      0.069760      0.186461 
 H80  H    -0.015206      0.129792      0.189701 
 H81  H     0.128880     -0.058729      0.191251 
 N82  N     0.002142     -0.004454      0.181025 
 H83  H     0.126861      0.054550      0.192329 
 C84  C     0.276018      0.303074      0.058807 
 C85  C     0.315326      0.317503     -0.004990 
 C86  C     0.292731      0.265926     -0.064559 
 C87  C     0.230100      0.200844     -0.059079 
 C88  C     0.190751      0.186467      0.004699 
 C89  C     0.213542      0.237856      0.064304 
 O90  O     0.332357      0.280305     -0.126510 
 C91  C     0.318527      0.220660     -0.184441 
 C92  C     0.379435      0.243873     -0.242110 
 C93  C     0.374882      0.181461     -0.305753 
 C94  C     0.437646      0.205498     -0.362801 
 O95  O     0.174058      0.223111      0.126218 
 C96  C     0.187852      0.282353      0.184395 
 C97  C     0.127032      0.258195      0.241824 
 C98  C     0.130987      0.320094      0.305781 
 C99  C     0.068394      0.294853      0.362562 
 H100  H     0.211657      0.161144     -0.105171 
 H101  H     0.294162      0.342890      0.104874 
 H102  H     0.256896      0.279493      0.203393 
 H103  H     0.173332      0.347771      0.167197 
 H104  H     0.332827      0.155376     -0.166801 
 H105  H     0.249496      0.223635     -0.203493 
 H106  H     0.059193      0.255873      0.219924 
 H107  H     0.143250      0.193112      0.259049 
 H108  H     0.363619      0.308884     -0.259688 
 H109  H     0.447334      0.245906     -0.220324 
 H110  H     0.390274      0.116235     -0.288442 
 H111  H     0.307306      0.179321     -0.328265 
 H112  H     0.198519      0.322664      0.328353 
 H113  H     0.114962      0.385344      0.288856 
 H114  H     0.072144      0.340096      0.407642 
 H115  H     0.000066      0.293339      0.342369 
 H116  H     0.084139      0.230924      0.382142 
 H117  H     0.433504      0.159674     -0.407487 
 H118  H     0.422349      0.269242     -0.383018 
 H119  H    -0.493989      0.206702     -0.342632 
 C120  C     0.235132     -0.191749      0.055138 
 C121  C     0.184569     -0.186222     -0.007182 
 C122  C     0.200580     -0.242369     -0.064242 
 C123  C     0.266698     -0.304311     -0.056603 
 C124  C     0.317335     -0.309736      0.005683 
 C125  C     0.301216     -0.253709      0.062775 
 O126  O     0.152992     -0.237156     -0.126406 
 C127  C     0.171144     -0.298126     -0.182009 
 C128  C     0.119713     -0.271940     -0.247367 
 C129  C     0.128404     -0.332680     -0.311177 
 C130  C     0.074532     -0.302206     -0.375262 
 O131  O     0.348822     -0.258986      0.124915 
 C132  C     0.329827     -0.198833      0.180869 
 C133  C     0.381812     -0.224945      0.245978 
 C134  C     0.371841     -0.165345      0.310313 
 C135  C     0.425934     -0.195996      0.374216 
 H136  H     0.279112     -0.349797     -0.099555 
 H137  H     0.222711     -0.146325      0.098139 
 H138  H     0.348024     -0.133821      0.165584 
 H139  H     0.259355     -0.199734      0.191332 
 H140  H     0.241604     -0.298414     -0.192524 
 H141  H     0.151973     -0.362675     -0.166270 
 H142  H     0.360672     -0.289397      0.259464 
 H143  H     0.451315     -0.229797      0.233763 
 H144  H     0.050344     -0.265408     -0.235157 
 H145  H     0.142227     -0.208171     -0.261462 
 H146  H     0.197869     -0.337974     -0.324339 
 H147  H     0.107264     -0.397459     -0.298001 
 H148  H     0.391976     -0.100013      0.297845 
 H149  H     0.302236     -0.161377      0.323290 
 H150  H     0.411594     -0.157795      0.421473 
 H151  H     0.411184     -0.262982      0.385282 
 H152  H     0.496737     -0.192048      0.366263 
 H153  H     0.088031     -0.341335     -0.422217 
 H154  H     0.003718     -0.304938     -0.367077 
 H155  H     0.090254     -0.235654     -0.387030 
 N156  N     0.496710      0.494928      0.317735 
 C157  C    -0.415076      0.474487      0.292790 
 C158  C     0.434065      0.430900      0.286958 
 C159  C     0.471103     -0.420132      0.291685 
 C160  C     0.435235      0.430318      0.205137 
 H161  H     0.451150      0.367262      0.307082 
 H162  H     0.367834      0.446257      0.304915 
 C163  C    -0.414827      0.475912      0.211203 
 H164  H    -0.367176     -0.479371      0.316435 
 H165  H    -0.395722      0.410730      0.311352 
 C166  C     0.469034     -0.420450      0.209913 
 H167  H     0.406393     -0.403137      0.311488 
 H168  H    -0.482344     -0.371741      0.313606 
 H169  H    -0.367646     -0.476507      0.193722 
 H170  H    -0.394466      0.412971      0.190249 
 H171  H     0.454769      0.366880      0.184123 
 H172  H     0.369132      0.443822      0.182705 
 H173  H    -0.488346     -0.370053      0.190703 
 N174  N     0.496890      0.495538      0.181411 
 H175  H     0.402098     -0.407215      0.189245 
 C176  C    -0.325542     -0.245764     -0.046105 
 C177  C    -0.307494     -0.314682     -0.002190 
 C178  C    -0.228886     -0.317053      0.038478 
 C179  C    -0.171865     -0.247038      0.039327 
 C180  C    -0.189794     -0.178098     -0.004600 
 C181  C    -0.267084     -0.176495     -0.047019 
 O182  O    -0.204138     -0.385609      0.077571 
 C183  C    -0.190577     -0.463954      0.038049 
 C184  C    -0.096658     -0.494160      0.052241 
 C185  C    -0.073641      0.423780      0.010429 
 C186  C     0.018111      0.388570      0.028782 
 O187  O    -0.281961     -0.109299     -0.090633 
 C188  C    -0.367375     -0.070148     -0.093062 
 C189  C    -0.372707     -0.003575     -0.033499 
 C190  C    -0.460402      0.045192     -0.033938 
 C191  C    -0.464202      0.115521      0.023478 
 H192  H    -0.111638     -0.249709      0.071959 
 H193  H    -0.385171     -0.245705     -0.079600 
 H194  H    -0.375937     -0.039936     -0.144351 
 H195  H    -0.419868     -0.117963     -0.090173 
 H196  H    -0.238418      0.488671      0.054393 
 H197  H    -0.203009     -0.454608     -0.018531 
 H198  H    -0.362396     -0.034865      0.017210 
 H199  H    -0.318485      0.042469     -0.036575 
 H200  H    -0.050918     -0.442871      0.039421 
 H201  H    -0.086023      0.495028      0.108735 
 H202  H    -0.122564      0.374085      0.019439 
 H203  H    -0.079145      0.436379     -0.046072 
 H204  H    -0.472599      0.073933     -0.085482 
 H205  H     0.485911     -0.000592     -0.027569 
 H206  H     0.472160      0.148769      0.021612 
 H207  H    -0.454606      0.088851      0.075909 
 H208  H    -0.413110      0.163964      0.017591 
 H209  H     0.031052      0.329420     -0.001722 
 H210  H     0.069512      0.434884      0.017584 
 H211  H     0.025175      0.373091      0.084556 
 Cu212  Cu     0.004996      0.005170     -0.430489 
 Cu213  Cu    -0.003274     -0.002557      0.433171 
 O214  O    -0.090327      0.093011      0.442716 
 C215  C    -0.117773      0.117889     -0.497774 
 O216  O    -0.093251      0.087574     -0.439000 
 O217  O     0.095837      0.080069      0.440813 
 C218  C     0.118785      0.116821      0.499054 
 O219  O     0.086283      0.102359     -0.442001 
 O220  O    -0.098332     -0.087298      0.448408 
 C221  C    -0.114934     -0.117878     -0.492133 
 O222  O    -0.078344     -0.093557     -0.433980 
 O223  O     0.083787     -0.096607      0.443287 
 C224  C     0.122288     -0.111594     -0.497759 
 O225  O     0.105936     -0.074178     -0.439680 
 Cu226  Cu    -0.498120     -0.495685     -0.434143 
 Cu227  Cu     0.494239      0.495603      0.429563 
 O228  O     0.393580     -0.424520      0.438012 
 C229  C     0.377066     -0.386702      0.495891 
 O230  O     0.415188     -0.401516     -0.444971 
 O231  O    -0.422001     -0.405771      0.433332 
 C232  C    -0.385676     -0.381154      0.491519 
 O233  O    -0.402706     -0.411341     -0.448981 
 O234  O     0.412429      0.398700      0.441683 
 C235  C     0.379994      0.384546     -0.499261 
 O236  O     0.402782      0.421842     -0.441219 
 O237  O    -0.407740      0.412946      0.439113 
 C238  C    -0.383802      0.382928      0.498150 
 O239  O    -0.411348      0.408552     -0.442583 
 C240  C    -0.256694      0.310483     -0.443942 
 C241  C    -0.316661      0.312416      0.498746 
 C242  C    -0.312740      0.251362      0.443418 
 C243  C    -0.245954      0.189374      0.445210 
 C244  C    -0.185696      0.187675     -0.497639 
 C245  C    -0.189874      0.248471     -0.442064 
 O246  O    -0.374512      0.254858      0.389427 
 C247  C    -0.384189      0.183356      0.340953 
 C248  C    -0.463419      0.200877      0.292550 
 C249  C    -0.489574      0.124898      0.243370 
 C250  C     0.427679      0.142305      0.197650 
 O251  O    -0.128037      0.245288     -0.387999 
 C252  C    -0.123892      0.313410     -0.335909 
 C253  C    -0.048569      0.294683     -0.283913 
 C254  C    -0.033071      0.365558     -0.227372 
 C255  C     0.042154      0.345153     -0.174721 
 H256  H    -0.241208      0.141706      0.402584 
 H257  H    -0.261336      0.358570     -0.401613 
 H258  H    -0.113504      0.374656     -0.361792 
 H259  H    -0.186282      0.317098     -0.308781 
 H260  H    -0.324554      0.176137      0.310553 
 H261  H    -0.393468      0.124413      0.370326 
 H262  H    -0.061792      0.234081     -0.258093 
 H263  H     0.012019      0.284570     -0.312612 
 H264  H     0.480463      0.218786      0.324473 
 H265  H    -0.449624      0.256861      0.260846 
 H266  H    -0.434696      0.109107      0.209456 
 H267  H     0.499870      0.067810      0.274640 
 H268  H    -0.019234      0.426339     -0.252752 
 H269  H    -0.093750      0.376025     -0.198851 
 H270  H     0.052214      0.397770     -0.135824 
 H271  H     0.028432      0.287008     -0.145775 
 H272  H     0.104337      0.335109     -0.200988 
 H273  H     0.410720      0.086720      0.163233 
 H274  H     0.370923      0.156127      0.229885 
 H275  H     0.436781      0.197333      0.163900 
 N276  N     0.005516      0.006961     -0.182539 
 C277  C     0.032375     -0.077436     -0.210924 
 C278  C    -0.082968      0.026886     -0.211708 
 C279  C     0.067309      0.071607     -0.206926 
 C280  C    -0.083720      0.027712     -0.293308 
 H281  H    -0.130118     -0.020432     -0.193773 
 H282  H    -0.102759      0.090025     -0.190772 
 C283  C     0.029414     -0.078216     -0.292696 
 H284  H     0.099402     -0.091099     -0.190708 
 H285  H    -0.010488     -0.127311     -0.191177 
 C286  C     0.067369      0.070630     -0.288763 
 H287  H     0.048480      0.135264     -0.185979 
 H288  H     0.133574      0.057825     -0.184934 
 H289  H     0.093745     -0.095720     -0.312958 
 H290  H    -0.017685     -0.126420     -0.314097 
 H291  H    -0.132025     -0.018443     -0.316357 
 H292  H    -0.103073      0.091364     -0.312045 
 H293  H     0.133268      0.054926     -0.307255 
 N294  N     0.004051      0.006730     -0.318821 
 H295  H     0.050240      0.134280     -0.308887 
 C296  C     0.182822      0.251900     -0.451334 
 C297  C     0.188426      0.184336      0.499355 
 C298  C     0.256486      0.181134      0.451959 
 C299  C     0.316577      0.248863      0.451879 
 C300  C     0.310791      0.316622     -0.499013 
 C301  C     0.242788      0.319745     -0.451523 
 O302  O     0.263150      0.112460      0.406368 
 C303  C     0.348175      0.073352      0.401943 
 C304  C     0.370974      0.025719      0.469014 
 C305  C     0.468622      0.001862      0.477081 
 C306  C     0.489831     -0.053506     -0.459231 
 O307  O     0.235958      0.388383     -0.405893 
 C308  C     0.150794      0.427258     -0.401356 
 C309  C     0.127958      0.474755     -0.468505 
 C310  C     0.030249      0.498254     -0.476863 
 C311  C     0.008948     -0.447471      0.458808 
 H312  H     0.368325      0.248316      0.413955 
 H313  H     0.131010      0.252443     -0.413441 
 H314  H     0.100770      0.379088     -0.390998 
 H315  H     0.153606      0.472098     -0.355837 
 H316  H     0.345330      0.028634      0.356349 
 H317  H     0.398291      0.121447      0.391762 
 H318  H     0.168271     -0.466843     -0.469490 
 H319  H     0.146174      0.435728      0.485368 
 H320  H     0.353061      0.064763     -0.484774 
 H321  H     0.330450     -0.032542      0.469980 
 H322  H     0.489439     -0.031784      0.429095 
 H323  H    -0.492140      0.061029      0.481725 
 H324  H    -0.008805      0.438941     -0.480889 
 H325  H     0.009300     -0.467382     -0.429242 
 H326  H    -0.061261     -0.431527      0.454790 
 H327  H     0.045444     -0.386796      0.461545 
 H328  H     0.025878     -0.481658      0.410059 
 H329  H    -0.440088     -0.070037     -0.455657 
 H330  H     0.473393     -0.019905     -0.410103 
 H331  H     0.452887     -0.113908     -0.462481 
 C332  C     0.312519     -0.259353     -0.446683 
 C333  C     0.309169     -0.316935      0.495763 
 C334  C     0.246357     -0.307320      0.440595 
 C335  C     0.187211     -0.238567      0.444400 
 C336  C     0.190528     -0.181034     -0.498011 
 C337  C     0.253510     -0.190503     -0.442952 
 O338  O     0.243643     -0.364959      0.384784 
 C339  C     0.184992     -0.348616      0.325828 
 C340  C     0.202531     -0.411915      0.265925 
 C341  C     0.150181     -0.391787      0.197813 
 C342  C     0.176078     -0.447493      0.134502 
 O343  O     0.256541     -0.132626     -0.387307 
 C344  C     0.314773     -0.149229     -0.328158 
 C345  C     0.297775     -0.085250     -0.268611 
 C346  C     0.348482     -0.106212     -0.199936 
 C347  C     0.322212     -0.050149     -0.136937 
 H348  H     0.136629     -0.230717      0.403015 
 H349  H     0.363001     -0.267262     -0.405237 
 H350  H     0.303657     -0.214915     -0.310783 
 H351  H     0.383125     -0.144271     -0.344203 
 H352  H     0.116795     -0.354533      0.342052 
 H353  H     0.195180     -0.282683      0.308664 
 H354  H     0.314492     -0.020216     -0.284613 
 H355  H     0.227284     -0.084013     -0.258854 
 H356  H     0.272823     -0.411513      0.255431 
 H357  H     0.187596     -0.477383      0.281923 
 H358  H     0.079633     -0.399496      0.206073 
 H359  H     0.159461     -0.323984      0.185501 
 H360  H     0.337742     -0.173846     -0.187817 
 H361  H     0.419344     -0.099667     -0.207327 
 H362  H     0.358140     -0.069068     -0.088757 
 H363  H     0.336141      0.017756     -0.144833 
 H364  H     0.251888     -0.056003     -0.127404 
 H365  H     0.138191     -0.429739      0.086892 
 H366  H     0.245886     -0.440057      0.123704 
 H367  H     0.164085      0.484361      0.142948 
 N368  N     0.498083     -0.491446     -0.182419 
 C369  C    -0.453408      0.433215     -0.209408 
 C370  C     0.406996     -0.495066     -0.211951 
 C371  C    -0.460232     -0.413519     -0.208573 
 C372  C     0.405927     -0.497547     -0.293955 
 H373  H     0.374059      0.448024     -0.192437 
 H374  H     0.370645     -0.438757     -0.192359 
 C375  C    -0.454286      0.431570     -0.291356 
 H376  H    -0.385359      0.435604     -0.187756 
 H377  H    -0.482952      0.374462     -0.190000 
 C378  C    -0.461791     -0.415060     -0.290630 
 H379  H    -0.494712     -0.356503     -0.188045 
 H380  H    -0.392070     -0.409758     -0.187292 
 H381  H    -0.386679      0.433324     -0.309709 
 H382  H    -0.484113      0.371858     -0.313080 
 H383  H     0.373690      0.443556     -0.314836 
 H384  H     0.367827     -0.443367     -0.315283 
 H385  H    -0.394514     -0.411304     -0.309442 
 N386  N     0.496220     -0.494440     -0.319563 
 H387  H    -0.497752     -0.359188     -0.311345 
 C388  C    -0.282692     -0.286133     -0.441170 
 C389  C    -0.317152     -0.311482      0.492520 
 C390  C    -0.285733     -0.273423      0.432360 
 C391  C    -0.217842     -0.212924      0.440646 
 C392  C    -0.183332     -0.187642     -0.493061 
 C393  C    -0.214587     -0.225845     -0.432893 
 O394  O    -0.320203     -0.294158      0.366533 
 C395  C    -0.293580     -0.242578      0.309604 
 C396  C    -0.353993     -0.257470      0.245623 
 C397  C    -0.336100     -0.196813      0.185676 
 C398  C    -0.408357     -0.197989      0.127559 
 O399  O    -0.179922     -0.205327     -0.367061 
 C400  C    -0.205393     -0.257951     -0.310398 
 C401  C    -0.144543     -0.243605     -0.246558 
 C402  C    -0.160626     -0.306325     -0.187631 
 C403  C    -0.088623     -0.304422     -0.129290 
 H404  H    -0.190977     -0.184437      0.394486 
 H405  H    -0.309549     -0.314548     -0.394987 
 H406  H    -0.273512     -0.242436     -0.297489 
 H407  H    -0.201832     -0.325975     -0.327150 
 H408  H    -0.296792     -0.174285      0.325592 
 H409  H    -0.225431     -0.258843      0.297300 
 H410  H    -0.076953     -0.251043     -0.263414 
 H411  H    -0.151049     -0.177298     -0.226189 
 H412  H    -0.348364     -0.324349      0.226469 
 H413  H    -0.421652     -0.248402      0.261886 
 H414  H    -0.328255     -0.130793      0.206717 
 H415  H    -0.273040     -0.214351      0.163029 
 H416  H    -0.224284     -0.291395     -0.164920 
 H417  H    -0.166264     -0.372036     -0.209767 
 H418  H    -0.105253     -0.346112     -0.086291 
 H419  H    -0.025505     -0.326636     -0.148750 
 H420  H    -0.078707     -0.239368     -0.107038 
 H421  H    -0.390330     -0.158325      0.083711 
 H422  H    -0.420624     -0.263242      0.106565 
 H423  H    -0.470580     -0.172985      0.146731 
loop_  
_geom_bond_atom_site_label_1  
_geom_bond_atom_site_label_2  
Cu0   Cu1 
Cu0   O4 
Cu0   O7 
Cu0   O10 
Cu0   O13 
Cu0   N82 
Cu1   O2 
Cu1   O5 
Cu1   O8 
Cu1   O11 
Cu1   N276 
O2   C3 
C3   O4 
C3   C32 
O5   C6 
C6   O7 
C6   C88 
O8   C9 
C9   O10 
C9   C180 
O11   C12 
C12   O13 
C12   C121 
Cu14   Cu15 
Cu14   O18 
Cu14   O21 
Cu14   O24 
Cu14   O27 
Cu14   N174 
Cu15   O16 
Cu15   O19 
Cu15   O22 
Cu15   O25 
Cu15   N368 
O16   C17 
C17   O18 
C17   C124 
O19   C20 
C20   O21 
C20   C177 
O22   C23 
C23   O24 
C23   C85 
O25   C26 
C26   O27 
C26   C29 
C28   C29 
C28   C33 
C28   H45 
C29   C30 
C30   C31 
C30   O34 
C31   C32 
C31   H44 
C32   C33 
C33   O39 
O34   C35 
C35   C36 
C35   H48 
C35   H49 
C36   C37 
C36   H52 
C36   H53 
C37   C38 
C37   H54 
C37   H55 
C38   H61 
C38   H62 
C38   H63 
O39   C40 
C40   C41 
C40   H46 
C40   H47 
C41   C42 
C41   H50 
C41   H51 
C42   C43 
C42   H56 
C42   H57 
C43   H58 
C43   H59 
C43   H60 
N64   C65 
N64   C66 
N64   C67 
N64   Cu213 
C65   C71 
C65   H72 
C65   H73 
C66   C68 
C66   H69 
C66   H70 
C67   C74 
C67   H75 
C67   H76 
C68   H79 
C68   H80 
C68   N82 
C71   H77 
C71   H78 
C71   N82 
C74   H81 
C74   N82 
C74   H83 
C84   C85 
C84   C89 
C84   H101 
C85   C86 
C86   C87 
C86   O90 
C87   C88 
C87   H100 
C88   C89 
C89   O95 
O90   C91 
C91   C92 
C91   H104 
C91   H105 
C92   C93 
C92   H108 
C92   H109 
C93   C94 
C93   H110 
C93   H111 
C94   H117 
C94   H118 
C94   H119 
O95   C96 
C96   C97 
C96   H102 
C96   H103 
C97   C98 
C97   H106 
C97   H107 
C98   C99 
C98   H112 
C98   H113 
C99   H114 
C99   H115 
C99   H116 
C120   C121 
C120   C125 
C120   H137 
C121   C122 
C122   C123 
C122   O126 
C123   C124 
C123   H136 
C124   C125 
C125   O131 
O126   C127 
C127   C128 
C127   H140 
C127   H141 
C128   C129 
C128   H144 
C128   H145 
C129   C130 
C129   H146 
C129   H147 
C130   H153 
C130   H154 
C130   H155 
O131   C132 
C132   C133 
C132   H138 
C132   H139 
C133   C134 
C133   H142 
C133   H143 
C134   C135 
C134   H148 
C134   H149 
C135   H150 
C135   H151 
C135   H152 
N156   C157 
N156   C158 
N156   C159 
N156   Cu227 
C157   C163 
C157   H164 
C157   H165 
C158   C160 
C158   H161 
C158   H162 
C159   C166 
C159   H167 
C159   H168 
C160   H171 
C160   H172 
C160   N174 
C163   H169 
C163   H170 
C163   N174 
C166   H173 
C166   N174 
C166   H175 
C176   C177 
C176   C181 
C176   H193 
C177   C178 
C178   C179 
C178   O182 
C179   C180 
C179   H192 
C180   C181 
C181   O187 
O182   C183 
C183   C184 
C183   H196 
C183   H197 
C184   C185 
C184   H200 
C184   H201 
C185   C186 
C185   H202 
C185   H203 
C186   H209 
C186   H210 
C186   H211 
O187   C188 
C188   C189 
C188   H194 
C188   H195 
C189   C190 
C189   H198 
C189   H199 
C190   C191 
C190   H204 
C190   H205 
C191   H206 
C191   H207 
C191   H208 
Cu212   Cu213 
Cu212   O216 
Cu212   O219 
Cu212   O222 
Cu212   O225 
Cu212   N294 
Cu213   O214 
Cu213   O217 
Cu213   O220 
Cu213   O223 
O214   C215 
C215   O216 
C215   C244 
O217   C218 
C218   O219 
C218   C297 
O220   C221 
C221   O222 
C221   C392 
O223   C224 
C224   O225 
C224   C336 
Cu226   Cu227 
Cu226   O230 
Cu226   O233 
Cu226   O236 
Cu226   O239 
Cu226   N386 
Cu227   O228 
Cu227   O231 
Cu227   O234 
Cu227   O237 
O228   C229 
C229   O230 
C229   C333 
O231   C232 
C232   O233 
C232   C389 
O234   C235 
C235   O236 
C235   C300 
O237   C238 
C238   O239 
C238   C241 
C240   C241 
C240   C245 
C240   H257 
C241   C242 
C242   C243 
C242   O246 
C243   C244 
C243   H256 
C244   C245 
C245   O251 
O246   C247 
C247   C248 
C247   H260 
C247   H261 
C248   C249 
C248   H264 
C248   H265 
C249   C250 
C249   H266 
C249   H267 
C250   H273 
C250   H274 
C250   H275 
O251   C252 
C252   C253 
C252   H258 
C252   H259 
C253   C254 
C253   H262 
C253   H263 
C254   C255 
C254   H268 
C254   H269 
C255   H270 
C255   H271 
C255   H272 
N276   C277 
N276   C278 
N276   C279 
C277   C283 
C277   H284 
C277   H285 
C278   C280 
C278   H281 
C278   H282 
C279   C286 
C279   H287 
C279   H288 
C280   H291 
C280   H292 
C280   N294 
C283   H289 
C283   H290 
C283   N294 
C286   H293 
C286   N294 
C286   H295 
C296   C297 
C296   C301 
C296   H313 
C297   C298 
C298   C299 
C298   O302 
C299   C300 
C299   H312 
C300   C301 
C301   O307 
O302   C303 
C303   C304 
C303   H316 
C303   H317 
C304   C305 
C304   H320 
C304   H321 
C305   C306 
C305   H322 
C305   H323 
C306   H329 
C306   H330 
C306   H331 
O307   C308 
C308   C309 
C308   H314 
C308   H315 
C309   C310 
C309   H318 
C309   H319 
C310   C311 
C310   H324 
C310   H325 
C311   H326 
C311   H327 
C311   H328 
C332   C333 
C332   C337 
C332   H349 
C333   C334 
C334   C335 
C334   O338 
C335   C336 
C335   H348 
C336   C337 
C337   O343 
O338   C339 
C339   C340 
C339   H352 
C339   H353 
C340   C341 
C340   H356 
C340   H357 
C341   C342 
C341   H358 
C341   H359 
C342   H365 
C342   H366 
C342   H367 
O343   C344 
C344   C345 
C344   H350 
C344   H351 
C345   C346 
C345   H354 
C345   H355 
C346   C347 
C346   H360 
C346   H361 
C347   H362 
C347   H363 
C347   H364 
N368   C369 
N368   C370 
N368   C371 
C369   C375 
C369   H376 
C369   H377 
C370   C372 
C370   H373 
C370   H374 
C371   C378 
C371   H379 
C371   H380 
C372   H383 
C372   H384 
C372   N386 
C375   H381 
C375   H382 
C375   N386 
C378   H385 
C378   N386 
C378   H387 
C388   C389 
C388   C393 
C388   H405 
C389   C390 
C390   C391 
C390   O394 
C391   C392 
C391   H404 
C392   C393 
C393   O399 
O394   C395 
C395   C396 
C395   H408 
C395   H409 
C396   C397 
C396   H412 
C396   H413 
C397   C398 
C397   H414 
C397   H415 
C398   H421 
C398   H422 
C398   H423 
O399   C400 
C400   C401 
C400   H406 
C400   H407 
C401   C402 
C401   H410 
C401   H411 
C402   C403 
C402   H416 
C402   H417 
C403   H418 
C403   H419 
C403   H420 
  
#END  
